ligand
 OpenBabel11021811423D
libRbt.so/2013.1/901 2013/11/27
 26 27  0  0  0  0  0  0  0  0999 V2000
    0.2872  -18.9615  -86.2379 C   0  0  0  0  0  0  0  0  0  0  0  0
    1.5810  -18.6933  -94.5887 C   0  0  0  0  0  0  0  0  0  0  0  0
    0.5077  -14.4309  -98.3641 P   0  0  2  0  0  0  0  0  0  0  0  0
    2.2845  -14.5925 -100.4825 P   0  0  2  0  0  0  0  0  0  0  0  0
    2.0492  -17.8632  -91.5815 C   0  0  0  0  0  0  0  0  0  0  0  0
    0.4552  -18.8350  -89.9458 C   0  0  0  0  0  0  0  0  0  0  0  0
    1.6166  -18.1049  -90.1626 C   0  0  0  0  0  0  0  0  0  0  0  0
    2.3591  -17.6750  -89.0589 C   0  0  0  0  0  0  0  0  0  0  0  0
    3.4940  -16.9803  -89.1435 N   0  0  0  0  0  0  0  0  0  0  0  0
    1.9085  -17.9699  -87.7981 N   0  0  0  0  0  0  0  0  0  0  0  0
    0.7513  -18.6734  -87.6159 C   0  0  0  0  0  0  0  0  0  0  0  0
    0.0173  -19.1162  -88.6694 N   0  0  0  0  0  0  0  0  0  0  0  0
   -0.7217  -14.1504  -99.2054 O   0  5  0  0  0  0  0  0  0  0  0  0
    1.2296  -14.1621 -101.4767 O   0  0  0  0  0  0  0  0  0  0  0  0
   -1.0018  -16.0618  -93.2593 S   0  0  0  0  0  0  0  0  0  0  0  0
    0.0563  -16.4721  -92.0896 C   0  0  0  0  0  0  0  0  0  0  0  0
    0.9903  -13.0787  -97.8460 O   0  0  0  0  0  0  0  0  0  0  0  0
    3.2314  -15.6162 -101.0750 O   0  5  0  0  0  0  0  0  0  0  0  0
    1.0036  -17.4058  -92.4652 N   0  0  0  0  0  0  0  0  0  0  0  0
    1.5214  -15.2977  -99.2736 O   0  0  0  0  0  0  0  0  0  0  0  0
    3.0436  -13.3606 -100.0330 O   0  0  0  0  0  0  0  0  0  0  0  0
    0.7909  -17.7438  -93.7789 C   0  0  1  0  0  0  0  0  0  0  0  0
   -0.3030  -17.0418  -94.3091 C   0  0  2  0  0  0  0  0  0  0  0  0
   -0.9810  -16.9843  -95.6558 C   0  0  0  0  0  0  0  0  0  0  0  0
   -0.8319  -15.5999  -96.2957 C   0  0  0  0  0  0  0  0  0  0  0  0
    0.1561  -15.6550  -97.3173 O   0  0  0  0  0  0  0  0  0  0  0  0
  1 11  1  0  0  0  0
  3 13  1  6  0  0  0
  3 17  2  0  0  0  0
  3 20  1  0  0  0  0
  3 26  1  0  0  0  0
  4 14  1  6  0  0  0
  4 18  1  0  0  0  0
  4 21  2  0  0  0  0
  4 20  1  0  0  0  0
  5 19  1  0  0  0  0
  5  7  1  0  0  0  0
  6  7  2  0  0  0  0
  6 12  1  0  0  0  0
  7  8  1  0  0  0  0
  8  9  1  0  0  0  0
  8 10  2  0  0  0  0
 10 11  1  0  0  0  0
 11 12  2  0  0  0  0
 15 23  1  0  0  0  0
 15 16  1  0  0  0  0
 16 19  1  0  0  0  0
 19 22  1  0  0  0  0
 22  2  1  6  0  0  0
 22 23  1  0  0  0  0
 23 24  1  6  0  0  0
 24 25  1  0  0  0  0
 25 26  1  0  0  0  0
M  CHG  2  13  -1  18  -1
M  END
>  <CHROM.1>
71.83192964,41.05014024,47.29759420,-64.20632347,64.69384028,103.59611233
172.88565251,-62.82612402,0.94614198,-16.27163939,-94.79791412,1.60627895
-0.07950536,1.90667857

>  <Name>
ligand

>  <RI>
0

>  <Rbt.Current_Directory>
/home/itssahil/PROJECTS/Mol_Feturizer/New_Systems/rnas/2CKY

>  <Rbt.Executable>
rbdock ($Id: //depot/dev/client3/rdock/2013.1/src/exe/rbdock.cxx#4 $)

>  <Rbt.Library>
libRbt.so (2013.1, Build901 2013/11/27)

>  <Rbt.Parameter_File>
/export/apps/rDock/src/rDock_2013.1_src/data/scripts/dock_solv.prm

>  <Rbt.Receptor>
prm/pocket_docking_2.prm

>  <SCORE>
-15.3841

>  <SCORE.INTER>
-11.7011

>  <SCORE.INTER.CONST>
1

>  <SCORE.INTER.POLAR>
0

>  <SCORE.INTER.ROT>
8

>  <SCORE.INTER.SOLV>
17.4128

>  <SCORE.INTER.VDW>
-22.5383

>  <SCORE.INTER.norm>
-0.450044

>  <SCORE.INTRA>
-3.76958

>  <SCORE.INTRA.DIHEDRAL>
-6.45942

>  <SCORE.INTRA.DIHEDRAL.0>
16.4846

>  <SCORE.INTRA.POLAR>
0

>  <SCORE.INTRA.POLAR.0>
0

>  <SCORE.INTRA.REPUL>
0

>  <SCORE.INTRA.REPUL.0>
0

>  <SCORE.INTRA.SOLV>
0.138598

>  <SCORE.INTRA.SOLV.lig_0>
-82.6983

>  <SCORE.INTRA.VDW>
-0.60917

>  <SCORE.INTRA.VDW.0>
-2.11466

>  <SCORE.INTRA.norm>
-0.144984

>  <SCORE.RESTR>
0.0866124

>  <SCORE.RESTR.CAVITY>
0.0866124

>  <SCORE.RESTR.norm>
0.00333125

>  <SCORE.SYSTEM>
0

>  <SCORE.SYSTEM.CONST>
0

>  <SCORE.SYSTEM.DIHEDRAL>
0

>  <SCORE.SYSTEM.SOLV>
0

>  <SCORE.SYSTEM.norm>
0

>  <SCORE.heavy>
26

>  <SCORE.norm>
-0.591696

>  <RMSD>
1.073

$$$$
ligand
 OpenBabel11021811423D
libRbt.so/2013.1/901 2013/11/27
 26 27  0  0  0  0  0  0  0  0999 V2000
    0.3064  -19.0488  -86.2090 C   0  0  0  0  0  0  0  0  0  0  0  0
    2.2589  -17.8569  -94.6222 C   0  0  0  0  0  0  0  0  0  0  0  0
    1.0505  -14.7901  -98.7322 P   0  0  2  0  0  0  0  0  0  0  0  0
    3.7893  -14.7625  -99.1434 P   0  0  2  0  0  0  0  0  0  0  0  0
    2.1494  -17.7204  -91.4725 C   0  0  0  0  0  0  0  0  0  0  0  0
    0.5624  -18.8111  -89.9065 C   0  0  0  0  0  0  0  0  0  0  0  0
    1.6929  -18.0216  -90.0726 C   0  0  0  0  0  0  0  0  0  0  0  0
    2.3858  -17.5884  -88.9383 C   0  0  0  0  0  0  0  0  0  0  0  0
    3.4881  -16.8391  -88.9741 N   0  0  0  0  0  0  0  0  0  0  0  0
    1.9178  -17.9391  -87.6984 N   0  0  0  0  0  0  0  0  0  0  0  0
    0.7912  -18.7009  -87.5660 C   0  0  0  0  0  0  0  0  0  0  0  0
    0.1061  -19.1480  -88.6502 N   0  0  0  0  0  0  0  0  0  0  0  0
    0.9200  -15.3136 -100.1488 O   0  5  0  0  0  0  0  0  0  0  0  0
    3.2864  -13.7894 -100.1858 O   0  0  0  0  0  0  0  0  0  0  0  0
   -1.1792  -16.6045  -93.2171 S   0  0  0  0  0  0  0  0  0  0  0  0
   -0.1498  -16.9460  -92.0006 C   0  0  0  0  0  0  0  0  0  0  0  0
    0.6427  -13.3200  -98.7792 O   0  0  0  0  0  0  0  0  0  0  0  0
    4.2974  -16.0450  -99.7701 O   0  5  0  0  0  0  0  0  0  0  0  0
    1.0906  -17.4052  -92.4014 N   0  0  0  0  0  0  0  0  0  0  0  0
    2.5422  -15.1453  -98.2272 O   0  0  0  0  0  0  0  0  0  0  0  0
    4.8882  -14.0836  -98.3514 O   0  0  0  0  0  0  0  0  0  0  0  0
    1.1223  -17.4449  -93.7736 C   0  0  1  0  0  0  0  0  0  0  0  0
   -0.0967  -17.0117  -94.3185 C   0  0  2  0  0  0  0  0  0  0  0  0
   -0.6338  -16.8278  -95.7165 C   0  0  0  0  0  0  0  0  0  0  0  0
   -0.0696  -15.5606  -96.3677 C   0  0  0  0  0  0  0  0  0  0  0  0
    0.2901  -15.8410  -97.7149 O   0  0  0  0  0  0  0  0  0  0  0  0
  1 11  1  0  0  0  0
  3 13  1  6  0  0  0
  3 17  2  0  0  0  0
  3 20  1  0  0  0  0
  3 26  1  0  0  0  0
  4 14  1  6  0  0  0
  4 18  1  0  0  0  0
  4 21  2  0  0  0  0
  4 20  1  0  0  0  0
  5 19  1  0  0  0  0
  5  7  1  0  0  0  0
  6  7  2  0  0  0  0
  6 12  1  0  0  0  0
  7  8  1  0  0  0  0
  8  9  1  0  0  0  0
  8 10  2  0  0  0  0
 10 11  1  0  0  0  0
 11 12  2  0  0  0  0
 15 23  1  0  0  0  0
 15 16  1  0  0  0  0
 16 19  1  0  0  0  0
 19 22  1  0  0  0  0
 22  2  1  6  0  0  0
 22 23  1  0  0  0  0
 23 24  1  6  0  0  0
 24 25  1  0  0  0  0
 25 26  1  0  0  0  0
M  CHG  2  13  -1  18  -1
M  END
>  <CHROM.1>
50.29064223,22.15191243,41.96044627,14.62620975,103.24169981,137.01110495
-174.62119605,-164.97011671,1.45619083,-16.39363408,-94.58422498,-1.70054639
-0.08705687,-1.25682834

>  <Name>
ligand

>  <RI>
0

>  <Rbt.Current_Directory>
/home/itssahil/PROJECTS/Mol_Feturizer/New_Systems/rnas/2CKY

>  <Rbt.Executable>
rbdock ($Id: //depot/dev/client3/rdock/2013.1/src/exe/rbdock.cxx#4 $)

>  <Rbt.Library>
libRbt.so (2013.1, Build901 2013/11/27)

>  <Rbt.Parameter_File>
/export/apps/rDock/src/rDock_2013.1_src/data/scripts/dock_solv.prm

>  <Rbt.Receptor>
prm/pocket_docking_2.prm

>  <SCORE>
-14.9253

>  <SCORE.INTER>
-11.8942

>  <SCORE.INTER.CONST>
1

>  <SCORE.INTER.POLAR>
0

>  <SCORE.INTER.ROT>
8

>  <SCORE.INTER.SOLV>
15.9215

>  <SCORE.INTER.VDW>
-22.17

>  <SCORE.INTER.norm>
-0.457468

>  <SCORE.INTRA>
-3.03124

>  <SCORE.INTRA.DIHEDRAL>
-4.44208

>  <SCORE.INTRA.DIHEDRAL.0>
16.4846

>  <SCORE.INTRA.POLAR>
0

>  <SCORE.INTRA.POLAR.0>
0

>  <SCORE.INTRA.REPUL>
0

>  <SCORE.INTRA.REPUL.0>
0

>  <SCORE.INTRA.SOLV>
-0.69439

>  <SCORE.INTRA.SOLV.lig_0>
-82.6983

>  <SCORE.INTRA.VDW>
-0.463009

>  <SCORE.INTRA.VDW.0>
-2.11466

>  <SCORE.INTRA.norm>
-0.116586

>  <SCORE.RESTR>
0.000108624

>  <SCORE.RESTR.CAVITY>
0.000108624

>  <SCORE.RESTR.norm>
4.17786e-06

>  <SCORE.SYSTEM>
0

>  <SCORE.SYSTEM.CONST>
0

>  <SCORE.SYSTEM.DIHEDRAL>
0

>  <SCORE.SYSTEM.SOLV>
0

>  <SCORE.SYSTEM.norm>
0

>  <SCORE.heavy>
26

>  <SCORE.norm>
-0.574051

>  <RMSD>
1.088

$$$$
ligand
 OpenBabel11021811423D
libRbt.so/2013.1/901 2013/11/27
 26 27  0  0  0  0  0  0  0  0999 V2000
   -0.0475  -19.0077  -85.8257 C   0  0  0  0  0  0  0  0  0  0  0  0
    2.6117  -17.4557  -94.0733 C   0  0  0  0  0  0  0  0  0  0  0  0
    0.1501  -15.8228  -98.3983 P   0  0  2  0  0  0  0  0  0  0  0  0
    2.8379  -15.5149  -98.9911 P   0  0  2  0  0  0  0  0  0  0  0  0
    2.1845  -17.8048  -90.9673 C   0  0  0  0  0  0  0  0  0  0  0  0
    0.4738  -18.8433  -89.4992 C   0  0  0  0  0  0  0  0  0  0  0  0
    1.6253  -18.0731  -89.5984 C   0  0  0  0  0  0  0  0  0  0  0  0
    2.2426  -17.6284  -88.4255 C   0  0  0  0  0  0  0  0  0  0  0  0
    3.3561  -16.8957  -88.3960 N   0  0  0  0  0  0  0  0  0  0  0  0
    1.6825  -17.9491  -87.2160 N   0  0  0  0  0  0  0  0  0  0  0  0
    0.5376  -18.6922  -87.1507 C   0  0  0  0  0  0  0  0  0  0  0  0
   -0.0756  -19.1500  -88.2728 N   0  0  0  0  0  0  0  0  0  0  0  0
   -0.2710  -15.9576  -99.8483 O   0  5  0  0  0  0  0  0  0  0  0  0
    2.7353  -14.0977  -98.4738 O   0  0  0  0  0  0  0  0  0  0  0  0
   -0.9759  -16.4541  -92.8530 S   0  0  0  0  0  0  0  0  0  0  0  0
   -0.0663  -16.9721  -91.6038 C   0  0  0  0  0  0  0  0  0  0  0  0
   -0.1364  -14.3771  -98.0014 O   0  0  0  0  0  0  0  0  0  0  0  0
    2.6067  -15.5857 -100.4868 O   0  5  0  0  0  0  0  0  0  0  0  0
    1.2176  -17.3570  -91.9408 N   0  0  0  0  0  0  0  0  0  0  0  0
    1.6727  -16.3486  -98.2922 O   0  0  0  0  0  0  0  0  0  0  0  0
    4.2102  -16.0510  -98.6371 O   0  0  0  0  0  0  0  0  0  0  0  0
    1.3873  -17.1855  -93.2926 C   0  0  1  0  0  0  0  0  0  0  0  0
    0.2199  -16.6811  -93.8870 C   0  0  2  0  0  0  0  0  0  0  0  0
   -0.1783  -16.2881  -95.2883 C   0  0  0  0  0  0  0  0  0  0  0  0
   -0.0940  -17.4809  -96.2465 C   0  0  0  0  0  0  0  0  0  0  0  0
   -0.5036  -17.0735  -97.5462 O   0  0  0  0  0  0  0  0  0  0  0  0
  1 11  1  0  0  0  0
  3 13  1  6  0  0  0
  3 17  2  0  0  0  0
  3 20  1  0  0  0  0
  3 26  1  0  0  0  0
  4 14  1  1  0  0  0
  4 18  1  0  0  0  0
  4 21  2  0  0  0  0
  4 20  1  0  0  0  0
  5 19  1  0  0  0  0
  5  7  1  0  0  0  0
  6  7  2  0  0  0  0
  6 12  1  0  0  0  0
  7  8  1  0  0  0  0
  8  9  1  0  0  0  0
  8 10  2  0  0  0  0
 10 11  1  0  0  0  0
 11 12  2  0  0  0  0
 15 23  1  0  0  0  0
 15 16  1  0  0  0  0
 16 19  1  0  0  0  0
 19 22  1  0  0  0  0
 22  2  1  1  0  0  0
 22 23  1  0  0  0  0
 23 24  1  1  0  0  0
 24 25  1  0  0  0  0
 25 26  1  0  0  0  0
M  CHG  2  13  -1  18  -1
M  END
>  <CHROM.1>
67.77387401,11.09793622,48.11073310,54.08301565,-119.24341620,178.79246428
55.49586095,164.16505820,1.08864351,-16.76305588,-94.22593408,1.61951860
0.08425447,1.80299480

>  <Name>
ligand

>  <RI>
0

>  <Rbt.Current_Directory>
/home/itssahil/PROJECTS/Mol_Feturizer/New_Systems/rnas/2CKY

>  <Rbt.Executable>
rbdock ($Id: //depot/dev/client3/rdock/2013.1/src/exe/rbdock.cxx#4 $)

>  <Rbt.Library>
libRbt.so (2013.1, Build901 2013/11/27)

>  <Rbt.Parameter_File>
/export/apps/rDock/src/rDock_2013.1_src/data/scripts/dock_solv.prm

>  <Rbt.Receptor>
prm/pocket_docking_2.prm

>  <SCORE>
-18.2041

>  <SCORE.INTER>
-12.4789

>  <SCORE.INTER.CONST>
1

>  <SCORE.INTER.POLAR>
0

>  <SCORE.INTER.ROT>
8

>  <SCORE.INTER.SOLV>
16.4881

>  <SCORE.INTER.VDW>
-22.7486

>  <SCORE.INTER.norm>
-0.479956

>  <SCORE.INTRA>
-5.748

>  <SCORE.INTRA.DIHEDRAL>
-11.5596

>  <SCORE.INTRA.DIHEDRAL.0>
16.4846

>  <SCORE.INTRA.POLAR>
0

>  <SCORE.INTRA.POLAR.0>
0

>  <SCORE.INTRA.REPUL>
0

>  <SCORE.INTRA.REPUL.0>
0

>  <SCORE.INTRA.SOLV>
0.970782

>  <SCORE.INTRA.SOLV.lig_0>
-82.6983

>  <SCORE.INTRA.VDW>
-0.453575

>  <SCORE.INTRA.VDW.0>
-2.11466

>  <SCORE.INTRA.norm>
-0.221077

>  <SCORE.RESTR>
0.0227733

>  <SCORE.RESTR.CAVITY>
0.0227733

>  <SCORE.RESTR.norm>
0.000875894

>  <SCORE.SYSTEM>
0

>  <SCORE.SYSTEM.CONST>
0

>  <SCORE.SYSTEM.DIHEDRAL>
0

>  <SCORE.SYSTEM.SOLV>
0

>  <SCORE.SYSTEM.norm>
0

>  <SCORE.heavy>
26

>  <SCORE.norm>
-0.700158

>  <RMSD>
1.154

$$$$
ligand
 OpenBabel11021811423D
libRbt.so/2013.1/901 2013/11/27
 26 27  0  0  0  0  0  0  0  0999 V2000
    0.1579  -18.8109  -85.8409 C   0  0  0  0  0  0  0  0  0  0  0  0
    2.5410  -17.3951  -94.1247 C   0  0  0  0  0  0  0  0  0  0  0  0
    0.8087  -15.5424  -98.8015 P   0  0  2  0  0  0  0  0  0  0  0  0
    3.3605  -14.5306  -99.1689 P   0  0  2  0  0  0  0  0  0  0  0  0
    1.6521  -18.6568  -91.3734 C   0  0  0  0  0  0  0  0  0  0  0  0
    0.2352  -19.4538  -89.4979 C   0  0  0  0  0  0  0  0  0  0  0  0
    1.2837  -18.6448  -89.9164 C   0  0  0  0  0  0  0  0  0  0  0  0
    1.9831  -17.8997  -88.9625 C   0  0  0  0  0  0  0  0  0  0  0  0
    3.0126  -17.1003  -89.2433 N   0  0  0  0  0  0  0  0  0  0  0  0
    1.6008  -17.9751  -87.6481 N   0  0  0  0  0  0  0  0  0  0  0  0
    0.5523  -18.7652  -87.2691 C   0  0  0  0  0  0  0  0  0  0  0  0
   -0.1360  -19.5111  -88.1717 N   0  0  0  0  0  0  0  0  0  0  0  0
    1.0405  -17.0314  -98.9669 O   0  5  0  0  0  0  0  0  0  0  0  0
    3.6229  -15.7416 -100.0356 O   0  0  0  0  0  0  0  0  0  0  0  0
   -0.9682  -16.1642  -92.8864 S   0  0  0  0  0  0  0  0  0  0  0  0
   -0.3293  -17.2337  -91.8357 C   0  0  0  0  0  0  0  0  0  0  0  0
    0.3321  -15.0296 -100.1579 O   0  0  0  0  0  0  0  0  0  0  0  0
    4.5570  -14.1876  -98.3049 O   0  5  0  0  0  0  0  0  0  0  0  0
    0.9089  -17.7315  -92.1950 N   0  0  0  0  0  0  0  0  0  0  0  0
    2.1631  -14.9133  -98.1886 O   0  0  0  0  0  0  0  0  0  0  0  0
    3.0042  -13.3682 -100.0731 O   0  0  0  0  0  0  0  0  0  0  0  0
    1.2831  -17.1612  -93.3867 C   0  0  1  0  0  0  0  0  0  0  0  0
    0.3025  -16.2690  -93.8482 C   0  0  2  0  0  0  0  0  0  0  0  0
    0.1637  -15.3657  -95.0487 C   0  0  0  0  0  0  0  0  0  0  0  0
   -0.1320  -16.1696  -96.3194 C   0  0  0  0  0  0  0  0  0  0  0  0
   -0.0987  -15.3024  -97.4463 O   0  0  0  0  0  0  0  0  0  0  0  0
  1 11  1  0  0  0  0
  3 13  1  6  0  0  0
  3 17  2  0  0  0  0
  3 20  1  0  0  0  0
  3 26  1  0  0  0  0
  4 14  1  6  0  0  0
  4 18  1  0  0  0  0
  4 21  2  0  0  0  0
  4 20  1  0  0  0  0
  5 19  1  0  0  0  0
  5  7  1  0  0  0  0
  6  7  2  0  0  0  0
  6 12  1  0  0  0  0
  7  8  1  0  0  0  0
  8  9  1  0  0  0  0
  8 10  2  0  0  0  0
 10 11  1  0  0  0  0
 11 12  2  0  0  0  0
 15 23  1  0  0  0  0
 15 16  1  0  0  0  0
 16 19  1  0  0  0  0
 19 22  1  0  0  0  0
 22  2  1  1  0  0  0
 22 23  1  0  0  0  0
 23 24  1  1  0  0  0
 24 25  1  0  0  0  0
 25 26  1  0  0  0  0
M  CHG  2  13  -1  18  -1
M  END
>  <CHROM.1>
83.71039844,-22.47528978,86.95502753,-50.84490786,-106.55613743,-173.19606221
126.65357933,26.99743571,1.28020182,-16.51292778,-94.43828770,-1.69657595
-0.11552021,-1.26909535

>  <Name>
ligand

>  <RI>
0

>  <Rbt.Current_Directory>
/home/itssahil/PROJECTS/Mol_Feturizer/New_Systems/rnas/2CKY

>  <Rbt.Executable>
rbdock ($Id: //depot/dev/client3/rdock/2013.1/src/exe/rbdock.cxx#4 $)

>  <Rbt.Library>
libRbt.so (2013.1, Build901 2013/11/27)

>  <Rbt.Parameter_File>
/export/apps/rDock/src/rDock_2013.1_src/data/scripts/dock_solv.prm

>  <Rbt.Receptor>
prm/pocket_docking_2.prm

>  <SCORE>
-11.0983

>  <SCORE.INTER>
-8.59984

>  <SCORE.INTER.CONST>
1

>  <SCORE.INTER.POLAR>
0

>  <SCORE.INTER.ROT>
8

>  <SCORE.INTER.SOLV>
14.5044

>  <SCORE.INTER.VDW>
-19.5014

>  <SCORE.INTER.norm>
-0.330763

>  <SCORE.INTRA>
-2.55728

>  <SCORE.INTRA.DIHEDRAL>
-2.57377

>  <SCORE.INTRA.DIHEDRAL.0>
16.4846

>  <SCORE.INTRA.POLAR>
0

>  <SCORE.INTRA.POLAR.0>
0

>  <SCORE.INTRA.REPUL>
0

>  <SCORE.INTRA.REPUL.0>
0

>  <SCORE.INTRA.SOLV>
0.103554

>  <SCORE.INTRA.SOLV.lig_0>
-82.6983

>  <SCORE.INTRA.VDW>
-1.32217

>  <SCORE.INTRA.VDW.0>
-2.11466

>  <SCORE.INTRA.norm>
-0.0983569

>  <SCORE.RESTR>
0.0588154

>  <SCORE.RESTR.CAVITY>
0.0588154

>  <SCORE.RESTR.norm>
0.00226213

>  <SCORE.SYSTEM>
0

>  <SCORE.SYSTEM.CONST>
0

>  <SCORE.SYSTEM.DIHEDRAL>
0

>  <SCORE.SYSTEM.SOLV>
0

>  <SCORE.SYSTEM.norm>
0

>  <SCORE.heavy>
26

>  <SCORE.norm>
-0.426858

>  <RMSD>
1.321

$$$$
ligand
 OpenBabel11021811423D
libRbt.so/2013.1/901 2013/11/27
 26 27  0  0  0  0  0  0  0  0999 V2000
    0.6755  -18.7868  -86.6322 C   0  0  0  0  0  0  0  0  0  0  0  0
    0.7674  -18.6385  -95.0045 C   0  0  0  0  0  0  0  0  0  0  0  0
    0.6208  -15.6830  -98.5060 P   0  0  2  0  0  0  0  0  0  0  0  0
    2.4163  -14.2330 -100.0371 P   0  0  2  0  0  0  0  0  0  0  0  0
    1.9497  -17.9587  -92.1600 C   0  0  0  0  0  0  0  0  0  0  0  0
    0.5596  -18.9194  -90.3420 C   0  0  0  0  0  0  0  0  0  0  0  0
    1.6427  -18.1263  -90.6983 C   0  0  0  0  0  0  0  0  0  0  0  0
    2.4295  -17.5655  -89.6880 C   0  0  0  0  0  0  0  0  0  0  0  0
    3.4986  -16.8000  -89.9085 N   0  0  0  0  0  0  0  0  0  0  0  0
    2.0969  -17.7989  -88.3787 N   0  0  0  0  0  0  0  0  0  0  0  0
    1.0134  -18.5677  -88.0589 C   0  0  0  0  0  0  0  0  0  0  0  0
    0.2398  -19.1371  -89.0190 N   0  0  0  0  0  0  0  0  0  0  0  0
    1.8831  -16.5135  -98.3839 O   0  5  0  0  0  0  0  0  0  0  0  0
    2.5318  -15.4746 -100.8925 O   0  0  0  0  0  0  0  0  0  0  0  0
   -0.6262  -15.3108  -93.4722 S   0  0  0  0  0  0  0  0  0  0  0  0
    0.4286  -16.0179  -92.4506 C   0  0  0  0  0  0  0  0  0  0  0  0
   -0.4278  -16.5887  -99.1463 O   0  0  0  0  0  0  0  0  0  0  0  0
    3.4993  -14.1765  -98.9790 O   0  5  0  0  0  0  0  0  0  0  0  0
    0.9676  -17.2071  -92.9041 N   0  0  0  0  0  0  0  0  0  0  0  0
    1.0173  -14.3219  -99.2782 O   0  0  0  0  0  0  0  0  0  0  0  0
    2.4936  -13.0225 -100.9451 O   0  0  0  0  0  0  0  0  0  0  0  0
    0.4509  -17.4781  -94.1471 C   0  0  1  0  0  0  0  0  0  0  0  0
   -0.4437  -16.4745  -94.5507 C   0  0  2  0  0  0  0  0  0  0  0  0
   -1.2798  -16.2241  -95.7815 C   0  0  0  0  0  0  0  0  0  0  0  0
   -0.9396  -14.8735  -96.4206 C   0  0  0  0  0  0  0  0  0  0  0  0
    0.3308  -14.9569  -97.0547 O   0  0  0  0  0  0  0  0  0  0  0  0
  1 11  1  0  0  0  0
  3 13  1  1  0  0  0
  3 17  2  0  0  0  0
  3 20  1  0  0  0  0
  3 26  1  0  0  0  0
  4 14  1  6  0  0  0
  4 18  1  0  0  0  0
  4 21  2  0  0  0  0
  4 20  1  0  0  0  0
  5 19  1  0  0  0  0
  5  7  1  0  0  0  0
  6  7  2  0  0  0  0
  6 12  1  0  0  0  0
  7  8  1  0  0  0  0
  8  9  1  0  0  0  0
  8 10  2  0  0  0  0
 10 11  1  0  0  0  0
 11 12  2  0  0  0  0
 15 23  1  0  0  0  0
 15 16  1  0  0  0  0
 16 19  1  0  0  0  0
 19 22  1  0  0  0  0
 22  2  1  6  0  0  0
 22 23  1  0  0  0  0
 23 24  1  6  0  0  0
 24 25  1  0  0  0  0
 25 26  1  0  0  0  0
M  CHG  2  13  -1  18  -1
M  END
>  <CHROM.1>
14.23202646,45.69765195,67.98773263,49.15566507,57.28821088,72.65792661,77.01248244
-135.96087932,1.05551907,-16.31028613,-94.94638885,-1.61253369,-0.13143070
-1.26104042

>  <Name>
ligand

>  <RI>
0

>  <Rbt.Current_Directory>
/home/itssahil/PROJECTS/Mol_Feturizer/New_Systems/rnas/2CKY

>  <Rbt.Executable>
rbdock ($Id: //depot/dev/client3/rdock/2013.1/src/exe/rbdock.cxx#4 $)

>  <Rbt.Library>
libRbt.so (2013.1, Build901 2013/11/27)

>  <Rbt.Parameter_File>
/export/apps/rDock/src/rDock_2013.1_src/data/scripts/dock_solv.prm

>  <Rbt.Receptor>
prm/pocket_docking_2.prm

>  <SCORE>
-11.5367

>  <SCORE.INTER>
-9.39739

>  <SCORE.INTER.CONST>
1

>  <SCORE.INTER.POLAR>
0

>  <SCORE.INTER.ROT>
8

>  <SCORE.INTER.SOLV>
13.4618

>  <SCORE.INTER.VDW>
-19.6855

>  <SCORE.INTER.norm>
-0.361438

>  <SCORE.INTRA>
-2.14036

>  <SCORE.INTRA.DIHEDRAL>
-4.8919

>  <SCORE.INTRA.DIHEDRAL.0>
16.4846

>  <SCORE.INTRA.POLAR>
0

>  <SCORE.INTRA.POLAR.0>
0

>  <SCORE.INTRA.REPUL>
0

>  <SCORE.INTRA.REPUL.0>
0

>  <SCORE.INTRA.SOLV>
1.46954

>  <SCORE.INTRA.SOLV.lig_0>
-82.6983

>  <SCORE.INTRA.VDW>
-0.429183

>  <SCORE.INTRA.VDW.0>
-2.11466

>  <SCORE.INTRA.norm>
-0.0823216

>  <SCORE.RESTR>
0.00102784

>  <SCORE.RESTR.CAVITY>
0.00102784

>  <SCORE.RESTR.norm>
3.95324e-05

>  <SCORE.SYSTEM>
0

>  <SCORE.SYSTEM.CONST>
0

>  <SCORE.SYSTEM.DIHEDRAL>
0

>  <SCORE.SYSTEM.SOLV>
0

>  <SCORE.SYSTEM.norm>
0

>  <SCORE.heavy>
26

>  <SCORE.norm>
-0.44372

>  <RMSD>
1.401

$$$$
ligand
 OpenBabel11021811423D
libRbt.so/2013.1/901 2013/11/27
 26 27  0  0  0  0  0  0  0  0999 V2000
    0.0079  -18.9646  -85.7854 C   0  0  0  0  0  0  0  0  0  0  0  0
    2.4996  -17.7145  -94.1553 C   0  0  0  0  0  0  0  0  0  0  0  0
    1.2503  -14.1579  -98.2523 P   0  0  2  0  0  0  0  0  0  0  0  0
    4.0036  -13.8645  -98.3130 P   0  0  2  0  0  0  0  0  0  0  0  0
    2.1081  -18.0944  -91.0482 C   0  0  0  0  0  0  0  0  0  0  0  0
    0.4428  -19.0460  -89.4729 C   0  0  0  0  0  0  0  0  0  0  0  0
    1.5834  -18.2739  -89.6514 C   0  0  0  0  0  0  0  0  0  0  0  0
    2.2226  -17.7448  -88.5263 C   0  0  0  0  0  0  0  0  0  0  0  0
    3.3286  -17.0015  -88.5730 N   0  0  0  0  0  0  0  0  0  0  0  0
    1.6940  -17.9874  -87.2849 N   0  0  0  0  0  0  0  0  0  0  0  0
    0.5590  -18.7348  -87.1422 C   0  0  0  0  0  0  0  0  0  0  0  0
   -0.0749  -19.2735  -88.2158 N   0  0  0  0  0  0  0  0  0  0  0  0
    0.9457  -14.5236  -99.6916 O   0  5  0  0  0  0  0  0  0  0  0  0
    3.8923  -13.5675  -99.7915 O   0  0  0  0  0  0  0  0  0  0  0  0
   -1.0283  -16.5979  -92.8628 S   0  0  0  0  0  0  0  0  0  0  0  0
   -0.1195  -17.1684  -91.6361 C   0  0  0  0  0  0  0  0  0  0  0  0
    1.0211  -12.6534  -98.1347 O   0  0  0  0  0  0  0  0  0  0  0  0
    5.2257  -14.7029  -97.9983 O   0  5  0  0  0  0  0  0  0  0  0  0
    1.1436  -17.5960  -91.9994 N   0  0  0  0  0  0  0  0  0  0  0  0
    2.7231  -14.7270  -97.9162 O   0  0  0  0  0  0  0  0  0  0  0  0
    4.0537  -12.5467  -97.5668 O   0  0  0  0  0  0  0  0  0  0  0  0
    1.2985  -17.4105  -93.3511 C   0  0  1  0  0  0  0  0  0  0  0  0
    0.1419  -16.8538  -93.9192 C   0  0  2  0  0  0  0  0  0  0  0  0
   -0.2631  -16.4250  -95.3079 C   0  0  0  0  0  0  0  0  0  0  0  0
    0.7175  -15.3964  -95.8814 C   0  0  0  0  0  0  0  0  0  0  0  0
    0.4509  -15.2094  -97.2659 O   0  0  0  0  0  0  0  0  0  0  0  0
  1 11  1  0  0  0  0
  3 13  1  6  0  0  0
  3 17  2  0  0  0  0
  3 20  1  0  0  0  0
  3 26  1  0  0  0  0
  4 14  1  6  0  0  0
  4 18  1  0  0  0  0
  4 21  2  0  0  0  0
  4 20  1  0  0  0  0
  5 19  1  0  0  0  0
  5  7  1  0  0  0  0
  6  7  2  0  0  0  0
  6 12  1  0  0  0  0
  7  8  1  0  0  0  0
  8  9  1  0  0  0  0
  8 10  2  0  0  0  0
 10 11  1  0  0  0  0
 11 12  2  0  0  0  0
 15 23  1  0  0  0  0
 15 16  1  0  0  0  0
 16 19  1  0  0  0  0
 19 22  1  0  0  0  0
 22  2  1  1  0  0  0
 22 23  1  0  0  0  0
 23 24  1  1  0  0  0
 24 25  1  0  0  0  0
 25 26  1  0  0  0  0
M  CHG  2  13  -1  18  -1
M  END
>  <CHROM.1>
83.82961509,7.14190225,53.93204497,-54.66036428,123.27548350,169.11719888
178.25991555,164.59473072,1.56682109,-16.08865859,-94.06181166,-1.73525600
-0.18557884,-1.18599887

>  <Name>
ligand

>  <RI>
0

>  <Rbt.Current_Directory>
/home/itssahil/PROJECTS/Mol_Feturizer/New_Systems/rnas/2CKY

>  <Rbt.Executable>
rbdock ($Id: //depot/dev/client3/rdock/2013.1/src/exe/rbdock.cxx#4 $)

>  <Rbt.Library>
libRbt.so (2013.1, Build901 2013/11/27)

>  <Rbt.Parameter_File>
/export/apps/rDock/src/rDock_2013.1_src/data/scripts/dock_solv.prm

>  <Rbt.Receptor>
prm/pocket_docking_3.prm

>  <SCORE>
-19.1231

>  <SCORE.INTER>
-13.1449

>  <SCORE.INTER.CONST>
1

>  <SCORE.INTER.POLAR>
0

>  <SCORE.INTER.ROT>
8

>  <SCORE.INTER.SOLV>
16.256

>  <SCORE.INTER.VDW>
-23.1153

>  <SCORE.INTER.norm>
-0.505573

>  <SCORE.INTRA>
-5.97824

>  <SCORE.INTRA.DIHEDRAL>
-10.6039

>  <SCORE.INTRA.DIHEDRAL.0>
16.4846

>  <SCORE.INTRA.POLAR>
0

>  <SCORE.INTRA.POLAR.0>
0

>  <SCORE.INTRA.REPUL>
0

>  <SCORE.INTRA.REPUL.0>
0

>  <SCORE.INTRA.SOLV>
-0.317924

>  <SCORE.INTRA.SOLV.lig_0>
-82.6983

>  <SCORE.INTRA.VDW>
-0.517344

>  <SCORE.INTRA.VDW.0>
-2.11466

>  <SCORE.INTRA.norm>
-0.229932

>  <SCORE.RESTR>
0

>  <SCORE.RESTR.CAVITY>
0

>  <SCORE.RESTR.norm>
0

>  <SCORE.SYSTEM>
0

>  <SCORE.SYSTEM.CONST>
0

>  <SCORE.SYSTEM.DIHEDRAL>
0

>  <SCORE.SYSTEM.SOLV>
0

>  <SCORE.SYSTEM.norm>
0

>  <SCORE.heavy>
26

>  <SCORE.norm>
-0.735505

>  <RMSD>
1.428

$$$$
ligand
 OpenBabel11021811423D
libRbt.so/2013.1/901 2013/11/27
 26 27  0  0  0  0  0  0  0  0999 V2000
   -0.0113  -19.1727  -86.0262 C   0  0  0  0  0  0  0  0  0  0  0  0
    1.2077  -19.1756  -93.0804 C   0  0  0  0  0  0  0  0  0  0  0  0
   -0.3291  -15.5781  -97.2809 P   0  0  2  0  0  0  0  0  0  0  0  0
    0.6953  -13.8400  -99.1783 P   0  0  2  0  0  0  0  0  0  0  0  0
    2.1070  -17.0626  -90.9176 C   0  0  0  0  0  0  0  0  0  0  0  0
    0.2710  -18.0102  -89.5422 C   0  0  0  0  0  0  0  0  0  0  0  0
    1.5921  -17.5864  -89.6064 C   0  0  0  0  0  0  0  0  0  0  0  0
    2.3977  -17.7150  -88.4711 C   0  0  0  0  0  0  0  0  0  0  0  0
    3.6806  -17.3555  -88.4178 N   0  0  0  0  0  0  0  0  0  0  0  0
    1.8547  -18.2363  -87.3254 N   0  0  0  0  0  0  0  0  0  0  0  0
    0.5457  -18.6266  -87.2868 C   0  0  0  0  0  0  0  0  0  0  0  0
   -0.2564  -18.5270  -88.3783 N   0  0  0  0  0  0  0  0  0  0  0  0
   -1.4465  -16.1479  -98.1324 O   0  5  0  0  0  0  0  0  0  0  0  0
   -0.7205  -13.8489  -99.7093 O   0  0  0  0  0  0  0  0  0  0  0  0
   -0.6448  -15.7338  -93.3733 S   0  0  0  0  0  0  0  0  0  0  0  0
    0.4069  -15.7177  -92.1284 C   0  0  0  0  0  0  0  0  0  0  0  0
   -0.9617  -14.4930  -96.4137 O   0  0  0  0  0  0  0  0  0  0  0  0
    1.7153  -13.9274 -100.2953 O   0  5  0  0  0  0  0  0  0  0  0  0
    1.1030  -16.8970  -91.9413 N   0  0  0  0  0  0  0  0  0  0  0  0
    0.8621  -15.1475  -98.2818 O   0  0  0  0  0  0  0  0  0  0  0  0
    0.8923  -12.5713  -98.3737 O   0  0  0  0  0  0  0  0  0  0  0  0
    0.7072  -17.7978  -92.8991 C   0  0  1  0  0  0  0  0  0  0  0  0
   -0.2613  -17.2384  -93.7473 C   0  0  2  0  0  0  0  0  0  0  0  0
   -1.0317  -17.7228  -94.9508 C   0  0  0  0  0  0  0  0  0  0  0  0
   -0.0950  -18.0362  -96.1225 C   0  0  0  0  0  0  0  0  0  0  0  0
    0.4938  -16.8301  -96.5931 O   0  0  0  0  0  0  0  0  0  0  0  0
  1 11  1  0  0  0  0
  3 13  1  6  0  0  0
  3 17  2  0  0  0  0
  3 20  1  0  0  0  0
  3 26  1  0  0  0  0
  4 14  1  6  0  0  0
  4 18  1  0  0  0  0
  4 21  2  0  0  0  0
  4 20  1  0  0  0  0
  5 19  1  0  0  0  0
  5  7  1  0  0  0  0
  6  7  2  0  0  0  0
  6 12  1  0  0  0  0
  7  8  1  0  0  0  0
  8  9  1  0  0  0  0
  8 10  2  0  0  0  0
 10 11  1  0  0  0  0
 11 12  2  0  0  0  0
 15 23  1  0  0  0  0
 15 16  1  0  0  0  0
 16 19  1  0  0  0  0
 19 22  1  0  0  0  0
 22  2  1  6  0  0  0
 22 23  1  0  0  0  0
 23 24  1  6  0  0  0
 24 25  1  0  0  0  0
 25 26  1  0  0  0  0
M  CHG  2  13  -1  18  -1
M  END
>  <CHROM.1>
73.97693713,91.06804072,7.64335621,-42.25976664,116.38945069,-67.19598441
-64.43679115,-36.90008187,0.46174352,-16.37470401,-94.03232780,1.45621565
0.67934886,1.98680622

>  <Name>
ligand

>  <RI>
0

>  <Rbt.Current_Directory>
/home/itssahil/PROJECTS/Mol_Feturizer/New_Systems/rnas/2CKY

>  <Rbt.Executable>
rbdock ($Id: //depot/dev/client3/rdock/2013.1/src/exe/rbdock.cxx#4 $)

>  <Rbt.Library>
libRbt.so (2013.1, Build901 2013/11/27)

>  <Rbt.Parameter_File>
/export/apps/rDock/src/rDock_2013.1_src/data/scripts/dock_solv.prm

>  <Rbt.Receptor>
prm/pocket_docking_2.prm

>  <SCORE>
-19.9636

>  <SCORE.INTER>
-13.7489

>  <SCORE.INTER.CONST>
1

>  <SCORE.INTER.POLAR>
0

>  <SCORE.INTER.ROT>
8

>  <SCORE.INTER.SOLV>
16.5661

>  <SCORE.INTER.VDW>
-23.6213

>  <SCORE.INTER.norm>
-0.528802

>  <SCORE.INTRA>
-6.22243

>  <SCORE.INTRA.DIHEDRAL>
-9.87409

>  <SCORE.INTRA.DIHEDRAL.0>
16.4846

>  <SCORE.INTRA.POLAR>
0

>  <SCORE.INTRA.POLAR.0>
0

>  <SCORE.INTRA.REPUL>
0

>  <SCORE.INTRA.REPUL.0>
0

>  <SCORE.INTRA.SOLV>
1.42474

>  <SCORE.INTRA.SOLV.lig_0>
-82.6983

>  <SCORE.INTRA.VDW>
-1.99775

>  <SCORE.INTRA.VDW.0>
-2.11466

>  <SCORE.INTRA.norm>
-0.239324

>  <SCORE.RESTR>
0.00769682

>  <SCORE.RESTR.CAVITY>
0.00769682

>  <SCORE.RESTR.norm>
0.000296032

>  <SCORE.SYSTEM>
0

>  <SCORE.SYSTEM.CONST>
0

>  <SCORE.SYSTEM.DIHEDRAL>
0

>  <SCORE.SYSTEM.SOLV>
0

>  <SCORE.SYSTEM.norm>
0

>  <SCORE.heavy>
26

>  <SCORE.norm>
-0.76783

>  <RMSD>
1.693

$$$$
ligand
 OpenBabel11021811423D
libRbt.so/2013.1/901 2013/11/27
 26 27  0  0  0  0  0  0  0  0999 V2000
    0.3047  -19.0144  -86.5434 C   0  0  0  0  0  0  0  0  0  0  0  0
    0.4698  -15.7314  -91.9916 C   0  0  0  0  0  0  0  0  0  0  0  0
    0.5117  -14.4967  -97.8628 P   0  0  2  0  0  0  0  0  0  0  0  0
    1.7618  -14.9840 -100.2857 P   0  0  2  0  0  0  0  0  0  0  0  0
    3.0053  -17.5019  -91.3688 C   0  0  0  0  0  0  0  0  0  0  0  0
    1.1134  -18.5322  -90.1360 C   0  0  0  0  0  0  0  0  0  0  0  0
    2.3251  -17.8560  -90.0762 C   0  0  0  0  0  0  0  0  0  0  0  0
    2.8844  -17.5834  -88.8244 C   0  0  0  0  0  0  0  0  0  0  0  0
    4.0458  -16.9539  -88.6434 N   0  0  0  0  0  0  0  0  0  0  0  0
    2.2115  -17.9736  -87.6956 N   0  0  0  0  0  0  0  0  0  0  0  0
    1.0110  -18.6201  -87.7856 C   0  0  0  0  0  0  0  0  0  0  0  0
    0.4508  -18.9111  -88.9882 N   0  0  0  0  0  0  0  0  0  0  0  0
   -0.8126  -14.2788  -98.5676 O   0  5  0  0  0  0  0  0  0  0  0  0
    2.6726  -13.7840 -100.1545 O   0  0  0  0  0  0  0  0  0  0  0  0
    1.2457  -18.4010  -94.7546 S   0  0  0  0  0  0  0  0  0  0  0  0
    2.3469  -18.4763  -93.5556 C   0  0  0  0  0  0  0  0  0  0  0  0
    1.0571  -13.1088  -97.5368 O   0  0  0  0  0  0  0  0  0  0  0  0
    0.4591  -14.6287 -100.9729 O   0  5  0  0  0  0  0  0  0  0  0  0
    2.1588  -17.5620  -92.5363 N   0  0  0  0  0  0  0  0  0  0  0  0
    1.4027  -15.4568  -98.8063 O   0  0  0  0  0  0  0  0  0  0  0  0
    2.4991  -16.0567 -101.0611 O   0  0  0  0  0  0  0  0  0  0  0  0
    1.0446  -16.8110  -92.8196 C   0  0  1  0  0  0  0  0  0  0  0  0
    0.4643  -17.2088  -94.0342 C   0  0  2  0  0  0  0  0  0  0  0  0
   -0.7439  -16.7791  -94.8294 C   0  0  0  0  0  0  0  0  0  0  0  0
   -0.5098  -15.4268  -95.5111 C   0  0  0  0  0  0  0  0  0  0  0  0
    0.2916  -15.6143  -96.6711 O   0  0  0  0  0  0  0  0  0  0  0  0
  1 11  1  0  0  0  0
  3 13  1  6  0  0  0
  3 17  2  0  0  0  0
  3 20  1  0  0  0  0
  3 26  1  0  0  0  0
  4 14  1  1  0  0  0
  4 18  1  0  0  0  0
  4 21  2  0  0  0  0
  4 20  1  0  0  0  0
  5 19  1  0  0  0  0
  5  7  1  0  0  0  0
  6  7  2  0  0  0  0
  6 12  1  0  0  0  0
  7  8  1  0  0  0  0
  8  9  1  0  0  0  0
  8 10  2  0  0  0  0
 10 11  1  0  0  0  0
 11 12  2  0  0  0  0
 15 23  1  0  0  0  0
 15 16  1  0  0  0  0
 16 19  1  0  0  0  0
 19 22  1  0  0  0  0
 22  2  1  1  0  0  0
 22 23  1  0  0  0  0
 23 24  1  1  0  0  0
 24 25  1  0  0  0  0
 25 26  1  0  0  0  0
M  CHG  2  13  -1  18  -1
M  END
>  <CHROM.1>
59.51167737,-114.13309763,16.81926899,66.48564066,-106.76749775,78.19594614
166.15404815,-66.09878227,1.25825392,-16.43008192,-94.62396840,1.52179700
-0.28104407,1.86952587

>  <Name>
ligand

>  <RI>
0

>  <Rbt.Current_Directory>
/home/itssahil/PROJECTS/Mol_Feturizer/New_Systems/rnas/2CKY

>  <Rbt.Executable>
rbdock ($Id: //depot/dev/client3/rdock/2013.1/src/exe/rbdock.cxx#4 $)

>  <Rbt.Library>
libRbt.so (2013.1, Build901 2013/11/27)

>  <Rbt.Parameter_File>
/export/apps/rDock/src/rDock_2013.1_src/data/scripts/dock_solv.prm

>  <Rbt.Receptor>
prm/pocket_docking_2.prm

>  <SCORE>
-17.4601

>  <SCORE.INTER>
-11.6706

>  <SCORE.INTER.CONST>
1

>  <SCORE.INTER.POLAR>
0

>  <SCORE.INTER.ROT>
8

>  <SCORE.INTER.SOLV>
18.3791

>  <SCORE.INTER.VDW>
-22.8401

>  <SCORE.INTER.norm>
-0.448871

>  <SCORE.INTRA>
-6.20523

>  <SCORE.INTRA.DIHEDRAL>
-9.73808

>  <SCORE.INTRA.DIHEDRAL.0>
16.4846

>  <SCORE.INTRA.POLAR>
0

>  <SCORE.INTRA.POLAR.0>
0

>  <SCORE.INTRA.REPUL>
0

>  <SCORE.INTRA.REPUL.0>
0

>  <SCORE.INTRA.SOLV>
0.514195

>  <SCORE.INTRA.SOLV.lig_0>
-82.6983

>  <SCORE.INTRA.VDW>
-1.59329

>  <SCORE.INTRA.VDW.0>
-2.11466

>  <SCORE.INTRA.norm>
-0.238663

>  <SCORE.RESTR>
0.415748

>  <SCORE.RESTR.CAVITY>
0.415748

>  <SCORE.RESTR.norm>
0.0159903

>  <SCORE.SYSTEM>
0

>  <SCORE.SYSTEM.CONST>
0

>  <SCORE.SYSTEM.DIHEDRAL>
0

>  <SCORE.SYSTEM.SOLV>
0

>  <SCORE.SYSTEM.norm>
0

>  <SCORE.heavy>
26

>  <SCORE.norm>
-0.671543

>  <RMSD>
1.717

$$$$
ligand
 OpenBabel11021811423D
libRbt.so/2013.1/901 2013/11/27
 26 27  0  0  0  0  0  0  0  0999 V2000
   -0.0341  -18.9850  -85.8333 C   0  0  0  0  0  0  0  0  0  0  0  0
    1.1995  -18.6416  -93.8767 C   0  0  0  0  0  0  0  0  0  0  0  0
    1.5141  -14.2779  -97.9573 P   0  0  2  0  0  0  0  0  0  0  0  0
    1.2313  -15.0226 -100.6099 P   0  0  2  0  0  0  0  0  0  0  0  0
    2.2373  -17.9162  -90.9873 C   0  0  0  0  0  0  0  0  0  0  0  0
    0.4760  -18.8515  -89.5096 C   0  0  0  0  0  0  0  0  0  0  0  0
    1.6706  -18.1509  -89.6153 C   0  0  0  0  0  0  0  0  0  0  0  0
    2.3195  -17.7438  -88.4459 C   0  0  0  0  0  0  0  0  0  0  0  0
    3.4747  -17.0784  -88.4226 N   0  0  0  0  0  0  0  0  0  0  0  0
    1.7480  -18.0308  -87.2333 N   0  0  0  0  0  0  0  0  0  0  0  0
    0.5614  -18.7047  -87.1616 C   0  0  0  0  0  0  0  0  0  0  0  0
   -0.0840  -19.1252  -88.2802 N   0  0  0  0  0  0  0  0  0  0  0  0
    1.3879  -12.7764  -98.1235 O   0  5  0  0  0  0  0  0  0  0  0  0
    0.0918  -15.4197 -101.5212 O   0  0  0  0  0  0  0  0  0  0  0  0
    0.1150  -15.0766  -92.6610 S   0  0  0  0  0  0  0  0  0  0  0  0
    0.9938  -15.8331  -91.5157 C   0  0  0  0  0  0  0  0  0  0  0  0
    3.0096  -14.5797  -97.9092 O   0  0  0  0  0  0  0  0  0  0  0  0
    2.3391  -16.0562 -100.6116 O   0  5  0  0  0  0  0  0  0  0  0  0
    1.4147  -17.1055  -91.8531 N   0  0  0  0  0  0  0  0  0  0  0  0
    0.6417  -14.9633  -99.1300 O   0  0  0  0  0  0  0  0  0  0  0  0
    1.7565  -13.6765 -101.0659 O   0  0  0  0  0  0  0  0  0  0  0  0
    0.9645  -17.3968  -93.1172 C   0  0  1  0  0  0  0  0  0  0  0  0
    0.2338  -16.3239  -93.6515 C   0  0  2  0  0  0  0  0  0  0  0  0
   -0.4691  -16.0599  -94.9603 C   0  0  0  0  0  0  0  0  0  0  0  0
    0.5204  -16.0425  -96.1303 C   0  0  0  0  0  0  0  0  0  0  0  0
    0.5211  -14.7529  -96.7301 O   0  0  0  0  0  0  0  0  0  0  0  0
  1 11  1  0  0  0  0
  3 13  1  6  0  0  0
  3 17  2  0  0  0  0
  3 20  1  0  0  0  0
  3 26  1  0  0  0  0
  4 14  1  6  0  0  0
  4 18  1  0  0  0  0
  4 21  2  0  0  0  0
  4 20  1  0  0  0  0
  5 19  1  0  0  0  0
  5  7  1  0  0  0  0
  6  7  2  0  0  0  0
  6 12  1  0  0  0  0
  7  8  1  0  0  0  0
  8  9  1  0  0  0  0
  8 10  2  0  0  0  0
 10 11  1  0  0  0  0
 11 12  2  0  0  0  0
 15 23  1  0  0  0  0
 15 16  1  0  0  0  0
 16 19  1  0  0  0  0
 19 22  1  0  0  0  0
 22  2  1  6  0  0  0
 22 23  1  0  0  0  0
 23 24  1  6  0  0  0
 24 25  1  0  0  0  0
 25 26  1  0  0  0  0
M  CHG  2  13  -1  18  -1
M  END
>  <CHROM.1>
77.56708457,56.26306529,63.25198353,-167.46153744,115.96378438,-117.32796660
175.78913267,-169.20186547,1.13041973,-16.18714651,-94.40914806,1.61763297
1.23925062,1.82332969

>  <Name>
ligand

>  <RI>
0

>  <Rbt.Current_Directory>
/home/itssahil/PROJECTS/Mol_Feturizer/New_Systems/rnas/2CKY

>  <Rbt.Executable>
rbdock ($Id: //depot/dev/client3/rdock/2013.1/src/exe/rbdock.cxx#4 $)

>  <Rbt.Library>
libRbt.so (2013.1, Build901 2013/11/27)

>  <Rbt.Parameter_File>
/export/apps/rDock/src/rDock_2013.1_src/data/scripts/dock_solv.prm

>  <Rbt.Receptor>
prm/pocket_docking_2.prm

>  <SCORE>
-15.8944

>  <SCORE.INTER>
-12.9758

>  <SCORE.INTER.CONST>
1

>  <SCORE.INTER.POLAR>
0

>  <SCORE.INTER.ROT>
8

>  <SCORE.INTER.SOLV>
18.3765

>  <SCORE.INTER.VDW>
-23.7093

>  <SCORE.INTER.norm>
-0.499068

>  <SCORE.INTRA>
-3.42232

>  <SCORE.INTRA.DIHEDRAL>
-5.39262

>  <SCORE.INTRA.DIHEDRAL.0>
16.4846

>  <SCORE.INTRA.POLAR>
0

>  <SCORE.INTRA.POLAR.0>
0

>  <SCORE.INTRA.REPUL>
0

>  <SCORE.INTRA.REPUL.0>
0

>  <SCORE.INTRA.SOLV>
1.48205

>  <SCORE.INTRA.SOLV.lig_0>
-82.6983

>  <SCORE.INTRA.VDW>
-1.46704

>  <SCORE.INTRA.VDW.0>
-2.11466

>  <SCORE.INTRA.norm>
-0.131628

>  <SCORE.RESTR>
0.503736

>  <SCORE.RESTR.CAVITY>
0.503736

>  <SCORE.RESTR.norm>
0.0193745

>  <SCORE.SYSTEM>
0

>  <SCORE.SYSTEM.CONST>
0

>  <SCORE.SYSTEM.DIHEDRAL>
0

>  <SCORE.SYSTEM.SOLV>
0

>  <SCORE.SYSTEM.norm>
0

>  <SCORE.heavy>
26

>  <SCORE.norm>
-0.611321

>  <RMSD>
1.719

$$$$
ligand
 OpenBabel11021811423D
libRbt.so/2013.1/901 2013/11/27
 26 27  0  0  0  0  0  0  0  0999 V2000
    0.4675  -18.9903  -86.3977 C   0  0  0  0  0  0  0  0  0  0  0  0
    2.4658  -17.5635  -94.7047 C   0  0  0  0  0  0  0  0  0  0  0  0
    0.3142  -15.7114  -98.9614 P   0  0  2  0  0  0  0  0  0  0  0  0
    2.8108  -14.6838  -99.5790 P   0  0  2  0  0  0  0  0  0  0  0  0
    2.2886  -17.3050  -91.5658 C   0  0  0  0  0  0  0  0  0  0  0  0
    2.4075  -17.3171  -89.0866 C   0  0  0  0  0  0  0  0  0  0  0  0
    1.7897  -17.7945  -90.2353 C   0  0  0  0  0  0  0  0  0  0  0  0
    0.7014  -18.6622  -90.1049 C   0  0  0  0  0  0  0  0  0  0  0  0
    0.0229  -19.1732  -91.1327 N   0  0  0  0  0  0  0  0  0  0  0  0
    0.2903  -19.0303  -88.8500 N   0  0  0  0  0  0  0  0  0  0  0  0
    0.9306  -18.5595  -87.7384 C   0  0  0  0  0  0  0  0  0  0  0  0
    1.9812  -17.7040  -87.8342 N   0  0  0  0  0  0  0  0  0  0  0  0
    1.0245  -17.0506  -98.9716 O   0  5  0  0  0  0  0  0  0  0  0  0
    3.0532  -14.4425  -98.1060 O   0  0  0  0  0  0  0  0  0  0  0  0
   -0.9824  -16.2070  -93.4269 S   0  0  0  0  0  0  0  0  0  0  0  0
    0.0142  -16.5170  -92.1752 C   0  0  0  0  0  0  0  0  0  0  0  0
   -1.1034  -15.9743  -99.4624 O   0  0  0  0  0  0  0  0  0  0  0  0
    3.3863  -13.5724 -100.4330 O   0  5  0  0  0  0  0  0  0  0  0  0
    1.2558  -17.0098  -92.5299 N   0  0  0  0  0  0  0  0  0  0  0  0
    1.2315  -14.6777  -99.7956 O   0  0  0  0  0  0  0  0  0  0  0  0
    3.4294  -16.0165  -99.9496 O   0  0  0  0  0  0  0  0  0  0  0  0
    1.3173  -17.1024  -93.8985 C   0  0  1  0  0  0  0  0  0  0  0  0
    0.1177  -16.6722  -94.4871 C   0  0  2  0  0  0  0  0  0  0  0  0
   -0.3852  -16.5340  -95.9029 C   0  0  0  0  0  0  0  0  0  0  0  0
   -0.3082  -15.0804  -96.3819 C   0  0  0  0  0  0  0  0  0  0  0  0
    0.5692  -14.9961  -97.4982 O   0  0  0  0  0  0  0  0  0  0  0  0
  1 11  1  0  0  0  0
  3 13  1  1  0  0  0
  3 17  2  0  0  0  0
  3 20  1  0  0  0  0
  3 26  1  0  0  0  0
  4 14  1  1  0  0  0
  4 18  1  0  0  0  0
  4 21  2  0  0  0  0
  4 20  1  0  0  0  0
  5 19  1  0  0  0  0
  5  7  1  0  0  0  0
  6  7  2  0  0  0  0
  6 12  1  0  0  0  0
  7  8  1  0  0  0  0
  8  9  1  0  0  0  0
  8 10  2  0  0  0  0
 10 11  1  0  0  0  0
 11 12  2  0  0  0  0
 15 23  1  0  0  0  0
 15 16  1  0  0  0  0
 16 19  1  0  0  0  0
 19 22  1  0  0  0  0
 22  2  1  6  0  0  0
 22 23  1  0  0  0  0
 23 24  1  6  0  0  0
 24 25  1  0  0  0  0
 25 26  1  0  0  0  0
M  CHG  2  13  -1  18  -1
M  END
>  <CHROM.1>
-42.70750071,33.03070885,-138.80897522,-57.13075446,78.86346180,118.21565876
64.39455099,-94.40802887,1.08633114,-16.49368853,-94.82974913,-1.64228063
-0.14137780,-1.28884986

>  <Name>
ligand

>  <RI>
0

>  <Rbt.Current_Directory>
/home/itssahil/PROJECTS/Mol_Feturizer/New_Systems/rnas/2CKY

>  <Rbt.Executable>
rbdock ($Id: //depot/dev/client3/rdock/2013.1/src/exe/rbdock.cxx#4 $)

>  <Rbt.Library>
libRbt.so (2013.1, Build901 2013/11/27)

>  <Rbt.Parameter_File>
/export/apps/rDock/src/rDock_2013.1_src/data/scripts/dock_solv.prm

>  <Rbt.Receptor>
prm/pocket_docking_2.prm

>  <SCORE>
-12.4896

>  <SCORE.INTER>
-10.89

>  <SCORE.INTER.CONST>
1

>  <SCORE.INTER.POLAR>
0

>  <SCORE.INTER.ROT>
8

>  <SCORE.INTER.SOLV>
11.3441

>  <SCORE.INTER.VDW>
-19.9747

>  <SCORE.INTER.norm>
-0.418845

>  <SCORE.INTRA>
-1.60603

>  <SCORE.INTRA.DIHEDRAL>
-4.29204

>  <SCORE.INTRA.DIHEDRAL.0>
16.4846

>  <SCORE.INTRA.POLAR>
0

>  <SCORE.INTRA.POLAR.0>
0

>  <SCORE.INTRA.REPUL>
0

>  <SCORE.INTRA.REPUL.0>
0

>  <SCORE.INTRA.SOLV>
3.29665

>  <SCORE.INTRA.SOLV.lig_0>
-82.6983

>  <SCORE.INTRA.VDW>
-1.10834

>  <SCORE.INTRA.VDW.0>
-2.11466

>  <SCORE.INTRA.norm>
-0.0617703

>  <SCORE.RESTR>
0.0064003

>  <SCORE.RESTR.CAVITY>
0.0064003

>  <SCORE.RESTR.norm>
0.000246165

>  <SCORE.SYSTEM>
0

>  <SCORE.SYSTEM.CONST>
0

>  <SCORE.SYSTEM.DIHEDRAL>
0

>  <SCORE.SYSTEM.SOLV>
0

>  <SCORE.SYSTEM.norm>
0

>  <SCORE.heavy>
26

>  <SCORE.norm>
-0.48037

>  <RMSD>
1.722

$$$$
ligand
 OpenBabel11021811423D
libRbt.so/2013.1/901 2013/11/27
 26 27  0  0  0  0  0  0  0  0999 V2000
   -0.1506  -18.9568  -85.6779 C   0  0  0  0  0  0  0  0  0  0  0  0
    1.0343  -18.9218  -93.7675 C   0  0  0  0  0  0  0  0  0  0  0  0
   -0.3726  -15.3314  -98.0066 P   0  0  2  0  0  0  0  0  0  0  0  0
   -0.1729  -14.9816 -100.7467 P   0  0  2  0  0  0  0  0  0  0  0  0
    2.0569  -18.0996  -90.8988 C   0  0  0  0  0  0  0  0  0  0  0  0
    0.3107  -18.9673  -89.3631 C   0  0  0  0  0  0  0  0  0  0  0  0
    1.5075  -18.2783  -89.5113 C   0  0  0  0  0  0  0  0  0  0  0  0
    2.1742  -17.8304  -88.3672 C   0  0  0  0  0  0  0  0  0  0  0  0
    3.3331  -17.1713  -88.3847 N   0  0  0  0  0  0  0  0  0  0  0  0
    1.6176  -18.0674  -87.1370 N   0  0  0  0  0  0  0  0  0  0  0  0
    0.4285  -18.7311  -87.0237 C   0  0  0  0  0  0  0  0  0  0  0  0
   -0.2341  -19.1904  -88.1167 N   0  0  0  0  0  0  0  0  0  0  0  0
   -1.5253  -14.4409  -97.5867 O   0  5  0  0  0  0  0  0  0  0  0  0
   -0.5924  -13.5511 -100.4927 O   0  0  0  0  0  0  0  0  0  0  0  0
   -0.1098  -15.3427  -92.6519 S   0  0  0  0  0  0  0  0  0  0  0  0
    0.7800  -16.0526  -91.4855 C   0  0  0  0  0  0  0  0  0  0  0  0
    0.9005  -14.5210  -97.7776 O   0  0  0  0  0  0  0  0  0  0  0  0
   -0.8302  -15.5482 -101.9886 O   0  5  0  0  0  0  0  0  0  0  0  0
    1.2221  -17.3269  -91.7872 N   0  0  0  0  0  0  0  0  0  0  0  0
   -0.6848  -15.8416  -99.5060 O   0  0  0  0  0  0  0  0  0  0  0  0
    1.3362  -15.0173 -100.8780 O   0  0  0  0  0  0  0  0  0  0  0  0
    0.7781  -17.6604  -93.0430 C   0  0  1  0  0  0  0  0  0  0  0  0
    0.0305  -16.6148  -93.6073 C   0  0  2  0  0  0  0  0  0  0  0  0
   -0.6752  -16.3987  -94.9233 C   0  0  0  0  0  0  0  0  0  0  0  0
   -0.0096  -17.1964  -96.0498 C   0  0  0  0  0  0  0  0  0  0  0  0
   -0.5679  -16.8073  -97.2987 O   0  0  0  0  0  0  0  0  0  0  0  0
  1 11  1  0  0  0  0
  3 13  1  1  0  0  0
  3 17  2  0  0  0  0
  3 20  1  0  0  0  0
  3 26  1  0  0  0  0
  4 14  1  1  0  0  0
  4 18  1  0  0  0  0
  4 21  2  0  0  0  0
  4 20  1  0  0  0  0
  5 19  1  0  0  0  0
  5  7  1  0  0  0  0
  6  7  2  0  0  0  0
  6 12  1  0  0  0  0
  7  8  1  0  0  0  0
  8  9  1  0  0  0  0
  8 10  2  0  0  0  0
 10 11  1  0  0  0  0
 11 12  2  0  0  0  0
 15 23  1  0  0  0  0
 15 16  1  0  0  0  0
 16 19  1  0  0  0  0
 19 22  1  0  0  0  0
 22  2  1  6  0  0  0
 22 23  1  0  0  0  0
 23 24  1  6  0  0  0
 24 25  1  0  0  0  0
 25 26  1  0  0  0  0
M  CHG  2  13  -1  18  -1
M  END
>  <CHROM.1>
89.84737995,54.89704791,62.78455030,-49.30102947,151.16423186,-171.00870326
67.89129523,-92.48429655,0.32528553,-16.52817301,-94.39266749,0.62712402
1.43316129,2.77723320

>  <Name>
ligand

>  <RI>
0

>  <Rbt.Current_Directory>
/home/itssahil/PROJECTS/Mol_Feturizer/New_Systems/rnas/2CKY

>  <Rbt.Executable>
rbdock ($Id: //depot/dev/client3/rdock/2013.1/src/exe/rbdock.cxx#4 $)

>  <Rbt.Library>
libRbt.so (2013.1, Build901 2013/11/27)

>  <Rbt.Parameter_File>
/export/apps/rDock/src/rDock_2013.1_src/data/scripts/dock_solv.prm

>  <Rbt.Receptor>
prm/pocket_docking_2.prm

>  <SCORE>
-15.8292

>  <SCORE.INTER>
-12.3381

>  <SCORE.INTER.CONST>
1

>  <SCORE.INTER.POLAR>
0

>  <SCORE.INTER.ROT>
8

>  <SCORE.INTER.SOLV>
22.4174

>  <SCORE.INTER.VDW>
-24.6312

>  <SCORE.INTER.norm>
-0.47454

>  <SCORE.INTRA>
-4.05124

>  <SCORE.INTRA.DIHEDRAL>
-8.71613

>  <SCORE.INTRA.DIHEDRAL.0>
16.4846

>  <SCORE.INTRA.POLAR>
0

>  <SCORE.INTRA.POLAR.0>
0

>  <SCORE.INTRA.REPUL>
0

>  <SCORE.INTRA.REPUL.0>
0

>  <SCORE.INTRA.SOLV>
0.776575

>  <SCORE.INTRA.SOLV.lig_0>
-82.6983

>  <SCORE.INTRA.VDW>
-0.0814637

>  <SCORE.INTRA.VDW.0>
-2.11466

>  <SCORE.INTRA.norm>
-0.155817

>  <SCORE.RESTR>
0.560104

>  <SCORE.RESTR.CAVITY>
0.560104

>  <SCORE.RESTR.norm>
0.0215425

>  <SCORE.SYSTEM>
0

>  <SCORE.SYSTEM.CONST>
0

>  <SCORE.SYSTEM.DIHEDRAL>
0

>  <SCORE.SYSTEM.SOLV>
0

>  <SCORE.SYSTEM.norm>
0

>  <SCORE.heavy>
26

>  <SCORE.norm>
-0.608815

>  <RMSD>
1.749

$$$$
ligand
 OpenBabel11021811423D
libRbt.so/2013.1/901 2013/11/27
 26 27  0  0  0  0  0  0  0  0999 V2000
   -0.3885  -19.3689  -85.9945 C   0  0  0  0  0  0  0  0  0  0  0  0
    1.6091  -18.7781  -93.5410 C   0  0  0  0  0  0  0  0  0  0  0  0
    0.3689  -17.3623  -98.1167 P   0  0  2  0  0  0  0  0  0  0  0  0
    2.7938  -16.2835  -98.9081 P   0  0  2  0  0  0  0  0  0  0  0  0
    2.3836  -17.6364  -90.7040 C   0  0  0  0  0  0  0  0  0  0  0  0
    0.4323  -18.6379  -89.5421 C   0  0  0  0  0  0  0  0  0  0  0  0
    1.6876  -18.0526  -89.4387 C   0  0  0  0  0  0  0  0  0  0  0  0
    2.2708  -17.9260  -88.1745 C   0  0  0  0  0  0  0  0  0  0  0  0
    3.4733  -17.3941  -87.9537 N   0  0  0  0  0  0  0  0  0  0  0  0
    1.5787  -18.3647  -87.0754 N   0  0  0  0  0  0  0  0  0  0  0  0
    0.3364  -18.9187  -87.2067 C   0  0  0  0  0  0  0  0  0  0  0  0
   -0.2486  -19.0677  -88.4233 N   0  0  0  0  0  0  0  0  0  0  0  0
   -0.1057  -18.5160  -97.2554 O   0  5  0  0  0  0  0  0  0  0  0  0
    2.3246  -14.8973  -98.5275 O   0  0  0  0  0  0  0  0  0  0  0  0
    0.0625  -15.2573  -92.7828 S   0  0  0  0  0  0  0  0  0  0  0  0
    0.9496  -15.7808  -91.5198 C   0  0  0  0  0  0  0  0  0  0  0  0
   -0.2452  -17.5774  -99.4975 O   0  0  0  0  0  0  0  0  0  0  0  0
    2.4781  -16.6067 -100.3543 O   0  5  0  0  0  0  0  0  0  0  0  0
    1.5294  -17.0234  -91.6930 N   0  0  0  0  0  0  0  0  0  0  0  0
    1.9785  -17.3129  -98.0043 O   0  0  0  0  0  0  0  0  0  0  0  0
    4.2857  -16.3652  -98.6563 O   0  0  0  0  0  0  0  0  0  0  0  0
    1.1914  -17.4966  -92.9369 C   0  0  1  0  0  0  0  0  0  0  0  0
    0.3792  -16.5790  -93.6215 C   0  0  2  0  0  0  0  0  0  0  0  0
   -0.2687  -16.5383  -94.9836 C   0  0  0  0  0  0  0  0  0  0  0  0
    0.5519  -15.6954  -95.9656 C   0  0  0  0  0  0  0  0  0  0  0  0
    0.1146  -15.9568  -97.2935 O   0  0  0  0  0  0  0  0  0  0  0  0
  1 11  1  0  0  0  0
  3 13  1  1  0  0  0
  3 17  2  0  0  0  0
  3 20  1  0  0  0  0
  3 26  1  0  0  0  0
  4 14  1  1  0  0  0
  4 18  1  0  0  0  0
  4 21  2  0  0  0  0
  4 20  1  0  0  0  0
  5 19  1  0  0  0  0
  5  7  1  0  0  0  0
  6  7  2  0  0  0  0
  6 12  1  0  0  0  0
  7  8  1  0  0  0  0
  8  9  1  0  0  0  0
  8 10  2  0  0  0  0
 10 11  1  0  0  0  0
 11 12  2  0  0  0  0
 15 23  1  0  0  0  0
 15 16  1  0  0  0  0
 16 19  1  0  0  0  0
 19 22  1  0  0  0  0
 22  2  1  6  0  0  0
 22 23  1  0  0  0  0
 23 24  1  6  0  0  0
 24 25  1  0  0  0  0
 25 26  1  0  0  0  0
M  CHG  2  13  -1  18  -1
M  END
>  <CHROM.1>
174.42555406,68.44860422,40.77089058,60.84527717,80.31935532,165.08996766
-70.47683951,52.08574893,1.20681298,-17.13878792,-94.03511675,1.62822297
0.27939929,1.70670889

>  <Name>
ligand

>  <RI>
0

>  <Rbt.Current_Directory>
/home/itssahil/PROJECTS/Mol_Feturizer/New_Systems/rnas/2CKY

>  <Rbt.Executable>
rbdock ($Id: //depot/dev/client3/rdock/2013.1/src/exe/rbdock.cxx#4 $)

>  <Rbt.Library>
libRbt.so (2013.1, Build901 2013/11/27)

>  <Rbt.Parameter_File>
/export/apps/rDock/src/rDock_2013.1_src/data/scripts/dock_solv.prm

>  <Rbt.Receptor>
prm/pocket_docking_3.prm

>  <SCORE>
-18.5156

>  <SCORE.INTER>
-12.3589

>  <SCORE.INTER.CONST>
1

>  <SCORE.INTER.POLAR>
0

>  <SCORE.INTER.ROT>
8

>  <SCORE.INTER.SOLV>
19.2997

>  <SCORE.INTER.VDW>
-23.6058

>  <SCORE.INTER.norm>
-0.475341

>  <SCORE.INTRA>
-6.15678

>  <SCORE.INTRA.DIHEDRAL>
-10.0578

>  <SCORE.INTRA.DIHEDRAL.0>
16.4846

>  <SCORE.INTRA.POLAR>
0

>  <SCORE.INTRA.POLAR.0>
0

>  <SCORE.INTRA.REPUL>
0

>  <SCORE.INTRA.REPUL.0>
0

>  <SCORE.INTRA.SOLV>
0.518394

>  <SCORE.INTRA.SOLV.lig_0>
-82.6983

>  <SCORE.INTRA.VDW>
-1.3871

>  <SCORE.INTRA.VDW.0>
-2.11466

>  <SCORE.INTRA.norm>
-0.236799

>  <SCORE.RESTR>
0

>  <SCORE.RESTR.CAVITY>
0

>  <SCORE.RESTR.norm>
0

>  <SCORE.SYSTEM>
0

>  <SCORE.SYSTEM.CONST>
0

>  <SCORE.SYSTEM.DIHEDRAL>
0

>  <SCORE.SYSTEM.SOLV>
0

>  <SCORE.SYSTEM.norm>
0

>  <SCORE.heavy>
26

>  <SCORE.norm>
-0.71214

>  <RMSD>
1.763

$$$$
ligand
 OpenBabel11021811423D
libRbt.so/2013.1/901 2013/11/27
 26 27  0  0  0  0  0  0  0  0999 V2000
    0.0857  -18.9573  -86.0119 C   0  0  0  0  0  0  0  0  0  0  0  0
    1.5527  -18.0800  -93.9037 C   0  0  0  0  0  0  0  0  0  0  0  0
    0.7066  -13.7971  -98.4589 P   0  0  2  0  0  0  0  0  0  0  0  0
    2.4114  -14.9769 -100.2953 P   0  0  2  0  0  0  0  0  0  0  0  0
    2.4972  -17.3953  -90.9727 C   0  0  0  0  0  0  0  0  0  0  0  0
    2.4301  -17.4950  -88.4936 C   0  0  0  0  0  0  0  0  0  0  0  0
    1.8391  -17.8483  -89.6998 C   0  0  0  0  0  0  0  0  0  0  0  0
    0.6354  -18.5589  -89.6786 C   0  0  0  0  0  0  0  0  0  0  0  0
   -0.0291  -18.9404  -90.7698 N   0  0  0  0  0  0  0  0  0  0  0  0
    0.0862  -18.9018  -88.4702 N   0  0  0  0  0  0  0  0  0  0  0  0
    0.7013  -18.5571  -87.2997 C   0  0  0  0  0  0  0  0  0  0  0  0
    1.8635  -17.8544  -87.2895 N   0  0  0  0  0  0  0  0  0  0  0  0
   -0.4138  -13.4649  -99.4246 O   0  5  0  0  0  0  0  0  0  0  0  0
    1.5693  -14.4314 -101.4266 O   0  0  0  0  0  0  0  0  0  0  0  0
    0.3026  -14.5945  -92.6184 S   0  0  0  0  0  0  0  0  0  0  0  0
    1.1850  -15.3479  -91.4737 C   0  0  0  0  0  0  0  0  0  0  0  0
    1.5274  -12.5201  -98.2991 O   0  0  0  0  0  0  0  0  0  0  0  0
    2.9413  -16.3619 -100.6060 O   0  5  0  0  0  0  0  0  0  0  0  0
    1.6628  -16.5933  -91.8353 N   0  0  0  0  0  0  0  0  0  0  0  0
    1.4539  -15.1101  -99.0277 O   0  0  0  0  0  0  0  0  0  0  0  0
    3.5528  -14.0123 -100.0454 O   0  0  0  0  0  0  0  0  0  0  0  0
    1.2523  -16.8666  -93.1168 C   0  0  1  0  0  0  0  0  0  0  0  0
    0.4921  -15.8084  -93.6389 C   0  0  2  0  0  0  0  0  0  0  0  0
   -0.1916  -15.5356  -94.9560 C   0  0  0  0  0  0  0  0  0  0  0  0
    0.7644  -14.8716  -95.9527 C   0  0  0  0  0  0  0  0  0  0  0  0
    0.0567  -14.5484  -97.1434 O   0  0  0  0  0  0  0  0  0  0  0  0
  1 11  1  0  0  0  0
  3 13  1  6  0  0  0
  3 17  2  0  0  0  0
  3 20  1  0  0  0  0
  3 26  1  0  0  0  0
  4 14  1  6  0  0  0
  4 18  1  0  0  0  0
  4 21  2  0  0  0  0
  4 20  1  0  0  0  0
  5 19  1  0  0  0  0
  5  7  1  0  0  0  0
  6  7  2  0  0  0  0
  6 12  1  0  0  0  0
  7  8  1  0  0  0  0
  8  9  1  0  0  0  0
  8 10  2  0  0  0  0
 10 11  1  0  0  0  0
 11 12  2  0  0  0  0
 15 23  1  0  0  0  0
 15 16  1  0  0  0  0
 16 19  1  0  0  0  0
 19 22  1  0  0  0  0
 22  2  1  6  0  0  0
 22 23  1  0  0  0  0
 23 24  1  6  0  0  0
 24 25  1  0  0  0  0
 25 26  1  0  0  0  0
M  CHG  2  13  -1  18  -1
M  END
>  <CHROM.1>
74.25246343,64.29326356,-122.10378655,-58.95592223,91.79012196,-175.97820250
178.83750956,-172.16197122,1.18987944,-15.90714779,-94.55153054,1.66776205
-0.92841246,1.97062165

>  <Name>
ligand

>  <RI>
0

>  <Rbt.Current_Directory>
/home/itssahil/PROJECTS/Mol_Feturizer/New_Systems/rnas/2CKY

>  <Rbt.Executable>
rbdock ($Id: //depot/dev/client3/rdock/2013.1/src/exe/rbdock.cxx#4 $)

>  <Rbt.Library>
libRbt.so (2013.1, Build901 2013/11/27)

>  <Rbt.Parameter_File>
/export/apps/rDock/src/rDock_2013.1_src/data/scripts/dock_solv.prm

>  <Rbt.Receptor>
prm/pocket_docking_3.prm

>  <SCORE>
-20.0807

>  <SCORE.INTER>
-13.9918

>  <SCORE.INTER.CONST>
1

>  <SCORE.INTER.POLAR>
0

>  <SCORE.INTER.ROT>
8

>  <SCORE.INTER.SOLV>
12.3078

>  <SCORE.INTER.VDW>
-22.3638

>  <SCORE.INTER.norm>
-0.538147

>  <SCORE.INTRA>
-6.08886

>  <SCORE.INTRA.DIHEDRAL>
-11.0921

>  <SCORE.INTRA.DIHEDRAL.0>
16.4846

>  <SCORE.INTRA.POLAR>
0

>  <SCORE.INTRA.POLAR.0>
0

>  <SCORE.INTRA.REPUL>
0

>  <SCORE.INTRA.REPUL.0>
0

>  <SCORE.INTRA.SOLV>
2.43345

>  <SCORE.INTRA.SOLV.lig_0>
-82.6983

>  <SCORE.INTRA.VDW>
-1.75952

>  <SCORE.INTRA.VDW.0>
-2.11466

>  <SCORE.INTRA.norm>
-0.234187

>  <SCORE.RESTR>
0

>  <SCORE.RESTR.CAVITY>
0

>  <SCORE.RESTR.norm>
0

>  <SCORE.SYSTEM>
0

>  <SCORE.SYSTEM.CONST>
0

>  <SCORE.SYSTEM.DIHEDRAL>
0

>  <SCORE.SYSTEM.SOLV>
0

>  <SCORE.SYSTEM.norm>
0

>  <SCORE.heavy>
26

>  <SCORE.norm>
-0.772334

>  <RMSD>
1.777

$$$$
ligand
 OpenBabel11021811423D
libRbt.so/2013.1/901 2013/11/27
 26 27  0  0  0  0  0  0  0  0999 V2000
   -0.0167  -19.0930  -85.8184 C   0  0  0  0  0  0  0  0  0  0  0  0
    1.4746  -18.6800  -93.5994 C   0  0  0  0  0  0  0  0  0  0  0  0
    0.5755  -15.3928  -98.7011 P   0  0  2  0  0  0  0  0  0  0  0  0
    2.1217  -13.1377  -99.1416 P   0  0  2  0  0  0  0  0  0  0  0  0
    2.4073  -17.5879  -90.7907 C   0  0  0  0  0  0  0  0  0  0  0  0
    2.2834  -17.5812  -88.3118 C   0  0  0  0  0  0  0  0  0  0  0  0
    1.7497  -18.0289  -89.5133 C   0  0  0  0  0  0  0  0  0  0  0  0
    0.5982  -18.8211  -89.4864 C   0  0  0  0  0  0  0  0  0  0  0  0
   -0.0098  -19.2970  -90.5734 N   0  0  0  0  0  0  0  0  0  0  0  0
    0.0432  -19.1476  -88.2760 N   0  0  0  0  0  0  0  0  0  0  0  0
    0.6025  -18.7083  -87.1092 C   0  0  0  0  0  0  0  0  0  0  0  0
    1.7124  -17.9255  -87.1054 N   0  0  0  0  0  0  0  0  0  0  0  0
    1.6111  -16.4439  -99.0486 O   0  5  0  0  0  0  0  0  0  0  0  0
    1.0671  -12.5597 -100.0584 O   0  0  0  0  0  0  0  0  0  0  0  0
    0.0630  -15.1253  -92.7422 S   0  0  0  0  0  0  0  0  0  0  0  0
    0.9909  -15.6854  -91.5250 C   0  0  0  0  0  0  0  0  0  0  0  0
   -0.2790  -15.2031  -99.9516 O   0  0  0  0  0  0  0  0  0  0  0  0
    3.1310  -13.9735  -99.9020 O   0  5  0  0  0  0  0  0  0  0  0  0
    1.5272  -16.9418  -91.7348 N   0  0  0  0  0  0  0  0  0  0  0  0
    1.3703  -14.1106  -98.1266 O   0  0  0  0  0  0  0  0  0  0  0  0
    2.8082  -11.9918  -98.4264 O   0  0  0  0  0  0  0  0  0  0  0  0
    1.1205  -17.3934  -92.9662 C   0  0  1  0  0  0  0  0  0  0  0  0
    0.3044  -16.4470  -93.6056 C   0  0  2  0  0  0  0  0  0  0  0  0
   -0.4025  -16.3751  -94.9366 C   0  0  0  0  0  0  0  0  0  0  0  0
    0.5905  -16.1601  -96.0838 C   0  0  0  0  0  0  0  0  0  0  0  0
   -0.1192  -15.7996  -97.2625 O   0  0  0  0  0  0  0  0  0  0  0  0
  1 11  1  0  0  0  0
  3 13  1  6  0  0  0
  3 17  2  0  0  0  0
  3 20  1  0  0  0  0
  3 26  1  0  0  0  0
  4 14  1  6  0  0  0
  4 18  1  0  0  0  0
  4 21  2  0  0  0  0
  4 20  1  0  0  0  0
  5 19  1  0  0  0  0
  5  7  1  0  0  0  0
  6  7  2  0  0  0  0
  6 12  1  0  0  0  0
  7  8  1  0  0  0  0
  8  9  1  0  0  0  0
  8 10  2  0  0  0  0
 10 11  1  0  0  0  0
 11 12  2  0  0  0  0
 15 23  1  0  0  0  0
 15 16  1  0  0  0  0
 16 19  1  0  0  0  0
 19 22  1  0  0  0  0
 22  2  1  6  0  0  0
 22 23  1  0  0  0  0
 23 24  1  6  0  0  0
 24 25  1  0  0  0  0
 25 26  1  0  0  0  0
M  CHG  2  13  -1  18  -1
M  END
>  <CHROM.1>
76.81470828,69.95523870,-124.87459774,61.49529232,106.99164834,-166.99959630
176.19113509,48.99257478,1.04011196,-16.11695745,-94.30300397,-1.66491493
-1.02596306,-1.26999085

>  <Name>
ligand

>  <RI>
0

>  <Rbt.Current_Directory>
/home/itssahil/PROJECTS/Mol_Feturizer/New_Systems/rnas/2CKY

>  <Rbt.Executable>
rbdock ($Id: //depot/dev/client3/rdock/2013.1/src/exe/rbdock.cxx#4 $)

>  <Rbt.Library>
libRbt.so (2013.1, Build901 2013/11/27)

>  <Rbt.Parameter_File>
/export/apps/rDock/src/rDock_2013.1_src/data/scripts/dock_solv.prm

>  <Rbt.Receptor>
prm/pocket_docking_2.prm

>  <SCORE>
-18.445

>  <SCORE.INTER>
-13.0601

>  <SCORE.INTER.CONST>
1

>  <SCORE.INTER.POLAR>
0

>  <SCORE.INTER.ROT>
8

>  <SCORE.INTER.SOLV>
9.74401

>  <SCORE.INTER.VDW>
-20.888

>  <SCORE.INTER.norm>
-0.50231

>  <SCORE.INTRA>
-5.38498

>  <SCORE.INTRA.DIHEDRAL>
-10.6812

>  <SCORE.INTRA.DIHEDRAL.0>
16.4846

>  <SCORE.INTRA.POLAR>
0

>  <SCORE.INTRA.POLAR.0>
0

>  <SCORE.INTRA.REPUL>
0

>  <SCORE.INTRA.REPUL.0>
0

>  <SCORE.INTRA.SOLV>
3.17933

>  <SCORE.INTRA.SOLV.lig_0>
-82.6983

>  <SCORE.INTRA.VDW>
-1.63407

>  <SCORE.INTRA.VDW.0>
-2.11466

>  <SCORE.INTRA.norm>
-0.207114

>  <SCORE.RESTR>
0

>  <SCORE.RESTR.CAVITY>
0

>  <SCORE.RESTR.norm>
0

>  <SCORE.SYSTEM>
0

>  <SCORE.SYSTEM.CONST>
0

>  <SCORE.SYSTEM.DIHEDRAL>
0

>  <SCORE.SYSTEM.SOLV>
0

>  <SCORE.SYSTEM.norm>
0

>  <SCORE.heavy>
26

>  <SCORE.norm>
-0.709425

>  <RMSD>
1.785

$$$$
ligand
 OpenBabel11021811423D
libRbt.so/2013.1/901 2013/11/27
 26 27  0  0  0  0  0  0  0  0999 V2000
   -0.2500  -19.3245  -87.0663 C   0  0  0  0  0  0  0  0  0  0  0  0
    1.0398  -15.1514  -93.0119 C   0  0  0  0  0  0  0  0  0  0  0  0
   -0.3457  -15.7459  -98.9568 P   0  0  2  0  0  0  0  0  0  0  0  0
    1.5967  -13.9960  -99.8707 P   0  0  2  0  0  0  0  0  0  0  0  0
    2.7825  -17.2937  -91.4872 C   0  0  0  0  0  0  0  0  0  0  0  0
    0.8482  -18.5115  -90.5197 C   0  0  0  0  0  0  0  0  0  0  0  0
    2.0103  -17.7848  -90.2950 C   0  0  0  0  0  0  0  0  0  0  0  0
    2.4395  -17.5888  -88.9791 C   0  0  0  0  0  0  0  0  0  0  0  0
    3.5433  -16.9208  -88.6424 N   0  0  0  0  0  0  0  0  0  0  0  0
    1.6912  -18.1021  -87.9516 N   0  0  0  0  0  0  0  0  0  0  0  0
    0.5413  -18.7963  -88.2030 C   0  0  0  0  0  0  0  0  0  0  0  0
    0.1079  -19.0147  -89.4715 N   0  0  0  0  0  0  0  0  0  0  0  0
    0.8256  -16.7064  -99.0165 O   0  5  0  0  0  0  0  0  0  0  0  0
    2.2093  -14.7059 -101.0570 O   0  0  0  0  0  0  0  0  0  0  0  0
    1.2503  -18.6080  -94.8479 S   0  0  0  0  0  0  0  0  0  0  0  0
    2.1166  -18.6352  -93.4677 C   0  0  0  0  0  0  0  0  0  0  0  0
   -1.5711  -16.5358  -99.4090 O   0  0  0  0  0  0  0  0  0  0  0  0
    2.2417  -14.4203  -98.5670 O   0  5  0  0  0  0  0  0  0  0  0  0
    2.1086  -17.4518  -92.7538 N   0  0  0  0  0  0  0  0  0  0  0  0
    0.0661  -14.4369  -99.8069 O   0  0  0  0  0  0  0  0  0  0  0  0
    1.7490  -12.5032 -100.0806 O   0  0  0  0  0  0  0  0  0  0  0  0
    1.3353  -16.5379  -93.4265 C   0  0  1  0  0  0  0  0  0  0  0  0
    0.8094  -17.0925  -94.6040 C   0  0  2  0  0  0  0  0  0  0  0  0
   -0.0929  -16.5947  -95.7060 C   0  0  0  0  0  0  0  0  0  0  0  0
    0.4959  -15.3572  -96.3917 C   0  0  0  0  0  0  0  0  0  0  0  0
   -0.3269  -14.9897  -97.4921 O   0  0  0  0  0  0  0  0  0  0  0  0
  1 11  1  0  0  0  0
  3 13  1  6  0  0  0
  3 17  2  0  0  0  0
  3 20  1  0  0  0  0
  3 26  1  0  0  0  0
  4 14  1  6  0  0  0
  4 18  1  0  0  0  0
  4 21  2  0  0  0  0
  4 20  1  0  0  0  0
  5 19  1  0  0  0  0
  5  7  1  0  0  0  0
  6  7  2  0  0  0  0
  6 12  1  0  0  0  0
  7  8  1  0  0  0  0
  8  9  1  0  0  0  0
  8 10  2  0  0  0  0
 10 11  1  0  0  0  0
 11 12  2  0  0  0  0
 15 23  1  0  0  0  0
 15 16  1  0  0  0  0
 16 19  1  0  0  0  0
 19 22  1  0  0  0  0
 22  2  1  1  0  0  0
 22 23  1  0  0  0  0
 23 24  1  1  0  0  0
 24 25  1  0  0  0  0
 25 26  1  0  0  0  0
M  CHG  2  13  -1  18  -1
M  END
>  <CHROM.1>
-31.03492063,-82.76249916,9.55275553,89.54113153,-121.94736219,175.15151348
-77.37168826,-10.55772142,1.06193802,-16.49143186,-94.96023872,1.49524265
0.73171618,1.94937579

>  <Name>
ligand

>  <RI>
0

>  <Rbt.Current_Directory>
/home/itssahil/PROJECTS/Mol_Feturizer/New_Systems/rnas/2CKY

>  <Rbt.Executable>
rbdock ($Id: //depot/dev/client3/rdock/2013.1/src/exe/rbdock.cxx#4 $)

>  <Rbt.Library>
libRbt.so (2013.1, Build901 2013/11/27)

>  <Rbt.Parameter_File>
/export/apps/rDock/src/rDock_2013.1_src/data/scripts/dock_solv.prm

>  <Rbt.Receptor>
prm/pocket_docking_2.prm

>  <SCORE>
-12.2389

>  <SCORE.INTER>
-9.71305

>  <SCORE.INTER.CONST>
1

>  <SCORE.INTER.POLAR>
0

>  <SCORE.INTER.ROT>
8

>  <SCORE.INTER.SOLV>
13.9579

>  <SCORE.INTER.VDW>
-20.0613

>  <SCORE.INTER.norm>
-0.373579

>  <SCORE.INTRA>
-2.53418

>  <SCORE.INTRA.DIHEDRAL>
-6.16917

>  <SCORE.INTRA.DIHEDRAL.0>
16.4846

>  <SCORE.INTRA.POLAR>
0

>  <SCORE.INTRA.POLAR.0>
0

>  <SCORE.INTRA.REPUL>
0

>  <SCORE.INTRA.REPUL.0>
0

>  <SCORE.INTRA.SOLV>
2.85183

>  <SCORE.INTRA.SOLV.lig_0>
-82.6983

>  <SCORE.INTRA.VDW>
-0.875517

>  <SCORE.INTRA.VDW.0>
-2.11466

>  <SCORE.INTRA.norm>
-0.0974686

>  <SCORE.RESTR>
0.00828723

>  <SCORE.RESTR.CAVITY>
0.00828723

>  <SCORE.RESTR.norm>
0.00031874

>  <SCORE.SYSTEM>
0

>  <SCORE.SYSTEM.CONST>
0

>  <SCORE.SYSTEM.DIHEDRAL>
0

>  <SCORE.SYSTEM.SOLV>
0

>  <SCORE.SYSTEM.norm>
0

>  <SCORE.heavy>
26

>  <SCORE.norm>
-0.470729

>  <RMSD>
1.791

$$$$
ligand
 OpenBabel11021811423D
libRbt.so/2013.1/901 2013/11/27
 26 27  0  0  0  0  0  0  0  0999 V2000
   -0.0155  -19.1301  -85.8094 C   0  0  0  0  0  0  0  0  0  0  0  0
    1.5983  -18.7387  -93.6236 C   0  0  0  0  0  0  0  0  0  0  0  0
    0.2216  -14.2993  -98.2568 P   0  0  2  0  0  0  0  0  0  0  0  0
    1.2441  -15.2978 -100.6292 P   0  0  2  0  0  0  0  0  0  0  0  0
    2.3843  -17.6040  -90.7871 C   0  0  0  0  0  0  0  0  0  0  0  0
    2.2929  -17.6379  -88.3070 C   0  0  0  0  0  0  0  0  0  0  0  0
    1.7314  -18.0494  -89.5088 C   0  0  0  0  0  0  0  0  0  0  0  0
    0.5589  -18.8101  -89.4800 C   0  0  0  0  0  0  0  0  0  0  0  0
   -0.0761  -19.2498  -90.5669 N   0  0  0  0  0  0  0  0  0  0  0  0
    0.0109  -19.1427  -88.2682 N   0  0  0  0  0  0  0  0  0  0  0  0
    0.5972  -18.7397  -87.1016 C   0  0  0  0  0  0  0  0  0  0  0  0
    1.7283  -17.9877  -87.0992 N   0  0  0  0  0  0  0  0  0  0  0  0
   -0.9626  -13.8898  -99.1100 O   0  5  0  0  0  0  0  0  0  0  0  0
    1.4082  -13.8197 -100.9029 O   0  0  0  0  0  0  0  0  0  0  0  0
   -0.0641  -15.2884  -92.7900 S   0  0  0  0  0  0  0  0  0  0  0  0
    0.8663  -15.7938  -91.5510 C   0  0  0  0  0  0  0  0  0  0  0  0
    0.9764  -13.0143  -97.9263 O   0  0  0  0  0  0  0  0  0  0  0  0
    0.0233  -15.8661 -101.3236 O   0  5  0  0  0  0  0  0  0  0  0  0
    1.4888  -17.0114  -91.7515 N   0  0  0  0  0  0  0  0  0  0  0  0
    1.0121  -15.4552  -99.0599 O   0  0  0  0  0  0  0  0  0  0  0  0
    2.5002  -16.0082 -101.0912 O   0  0  0  0  0  0  0  0  0  0  0  0
    1.1447  -17.4815  -92.9949 C   0  0  1  0  0  0  0  0  0  0  0  0
    0.2855  -16.5868  -93.6519 C   0  0  2  0  0  0  0  0  0  0  0  0
   -0.3897  -16.5536  -95.0008 C   0  0  0  0  0  0  0  0  0  0  0  0
    0.4993  -15.8810  -96.0523 C   0  0  0  0  0  0  0  0  0  0  0  0
   -0.3183  -15.2896  -97.0547 O   0  0  0  0  0  0  0  0  0  0  0  0
  1 11  1  0  0  0  0
  3 13  1  6  0  0  0
  3 17  2  0  0  0  0
  3 20  1  0  0  0  0
  3 26  1  0  0  0  0
  4 14  1  6  0  0  0
  4 18  1  0  0  0  0
  4 21  2  0  0  0  0
  4 20  1  0  0  0  0
  5 19  1  0  0  0  0
  5  7  1  0  0  0  0
  6  7  2  0  0  0  0
  6 12  1  0  0  0  0
  7  8  1  0  0  0  0
  8  9  1  0  0  0  0
  8 10  2  0  0  0  0
 10 11  1  0  0  0  0
 11 12  2  0  0  0  0
 15 23  1  0  0  0  0
 15 16  1  0  0  0  0
 16 19  1  0  0  0  0
 19 22  1  0  0  0  0
 22  2  1  6  0  0  0
 22 23  1  0  0  0  0
 23 24  1  6  0  0  0
 24 25  1  0  0  0  0
 25 26  1  0  0  0  0
M  CHG  2  13  -1  18  -1
M  END
>  <CHROM.1>
42.67493538,67.86781675,-129.50319319,33.02637378,90.47792099,-151.97699997
171.43722636,179.88659527,0.74188358,-16.34891099,-94.52880549,1.54830653
-1.10062352,1.85015437

>  <Name>
ligand

>  <RI>
0

>  <Rbt.Current_Directory>
/home/itssahil/PROJECTS/Mol_Feturizer/New_Systems/rnas/2CKY

>  <Rbt.Executable>
rbdock ($Id: //depot/dev/client3/rdock/2013.1/src/exe/rbdock.cxx#4 $)

>  <Rbt.Library>
libRbt.so (2013.1, Build901 2013/11/27)

>  <Rbt.Parameter_File>
/export/apps/rDock/src/rDock_2013.1_src/data/scripts/dock_solv.prm

>  <Rbt.Receptor>
prm/pocket_docking_2.prm

>  <SCORE>
-17.3231

>  <SCORE.INTER>
-13.8474

>  <SCORE.INTER.CONST>
1

>  <SCORE.INTER.POLAR>
0

>  <SCORE.INTER.ROT>
8

>  <SCORE.INTER.SOLV>
13.0618

>  <SCORE.INTER.VDW>
-22.5189

>  <SCORE.INTER.norm>
-0.532592

>  <SCORE.INTRA>
-3.72037

>  <SCORE.INTRA.DIHEDRAL>
-7.0154

>  <SCORE.INTRA.DIHEDRAL.0>
16.4846

>  <SCORE.INTRA.POLAR>
0

>  <SCORE.INTRA.POLAR.0>
0

>  <SCORE.INTRA.REPUL>
0

>  <SCORE.INTRA.REPUL.0>
0

>  <SCORE.INTRA.SOLV>
2.54954

>  <SCORE.INTRA.SOLV.lig_0>
-82.6983

>  <SCORE.INTRA.VDW>
-1.48744

>  <SCORE.INTRA.VDW.0>
-2.11466

>  <SCORE.INTRA.norm>
-0.143091

>  <SCORE.RESTR>
0.244658

>  <SCORE.RESTR.CAVITY>
0.244658

>  <SCORE.RESTR.norm>
0.00940993

>  <SCORE.SYSTEM>
0

>  <SCORE.SYSTEM.CONST>
0

>  <SCORE.SYSTEM.DIHEDRAL>
0

>  <SCORE.SYSTEM.SOLV>
0

>  <SCORE.SYSTEM.norm>
0

>  <SCORE.heavy>
26

>  <SCORE.norm>
-0.666274

>  <RMSD>
1.794

$$$$
ligand
 OpenBabel11021811423D
libRbt.so/2013.1/901 2013/11/27
 26 27  0  0  0  0  0  0  0  0999 V2000
    0.3585  -18.9830  -86.0651 C   0  0  0  0  0  0  0  0  0  0  0  0
    1.4410  -19.2138  -93.3680 C   0  0  0  0  0  0  0  0  0  0  0  0
    0.3783  -15.4894  -98.1590 P   0  0  2  0  0  0  0  0  0  0  0  0
    3.0399  -15.3010  -98.9011 P   0  0  2  0  0  0  0  0  0  0  0  0
    2.1075  -17.0503  -91.1711 C   0  0  0  0  0  0  0  0  0  0  0  0
    2.4636  -17.5426  -88.7646 C   0  0  0  0  0  0  0  0  0  0  0  0
    1.6106  -17.5905  -89.8596 C   0  0  0  0  0  0  0  0  0  0  0  0
    0.3150  -18.0855  -89.6843 C   0  0  0  0  0  0  0  0  0  0  0  0
   -0.5940  -18.1675  -90.6563 N   0  0  0  0  0  0  0  0  0  0  0  0
   -0.0668  -18.5261  -88.4435 N   0  0  0  0  0  0  0  0  0  0  0  0
    0.8014  -18.4847  -87.3891 C   0  0  0  0  0  0  0  0  0  0  0  0
    2.0610  -17.9956  -87.5265 N   0  0  0  0  0  0  0  0  0  0  0  0
   -0.1570  -16.2398  -99.3625 O   0  5  0  0  0  0  0  0  0  0  0  0
    2.5886  -15.5084 -100.3293 O   0  0  0  0  0  0  0  0  0  0  0  0
   -0.7144  -15.9532  -93.6614 S   0  0  0  0  0  0  0  0  0  0  0  0
    0.3111  -15.8541  -92.3986 C   0  0  0  0  0  0  0  0  0  0  0  0
    0.0885  -14.0122  -98.4113 O   0  0  0  0  0  0  0  0  0  0  0  0
    4.3351  -16.0310  -98.6090 O   0  5  0  0  0  0  0  0  0  0  0  0
    1.1093  -16.9665  -92.2102 N   0  0  0  0  0  0  0  0  0  0  0  0
    1.9174  -15.9355  -97.9638 O   0  0  0  0  0  0  0  0  0  0  0  0
    3.2012  -13.8129  -98.6658 O   0  0  0  0  0  0  0  0  0  0  0  0
    0.8134  -17.8896  -93.1828 C   0  0  1  0  0  0  0  0  0  0  0  0
   -0.1885  -17.4124  -94.0424 C   0  0  2  0  0  0  0  0  0  0  0  0
   -0.8916  -17.9525  -95.2632 C   0  0  0  0  0  0  0  0  0  0  0  0
   -0.1120  -17.6310  -96.5428 C   0  0  0  0  0  0  0  0  0  0  0  0
   -0.1709  -16.2323  -96.7937 O   0  0  0  0  0  0  0  0  0  0  0  0
  1 11  1  0  0  0  0
  3 13  1  6  0  0  0
  3 17  2  0  0  0  0
  3 20  1  0  0  0  0
  3 26  1  0  0  0  0
  4 14  1  6  0  0  0
  4 18  1  0  0  0  0
  4 21  2  0  0  0  0
  4 20  1  0  0  0  0
  5 19  1  0  0  0  0
  5  7  1  0  0  0  0
  6  7  2  0  0  0  0
  6 12  1  0  0  0  0
  7  8  1  0  0  0  0
  8  9  1  0  0  0  0
  8 10  2  0  0  0  0
 10 11  1  0  0  0  0
 11 12  2  0  0  0  0
 15 23  1  0  0  0  0
 15 16  1  0  0  0  0
 16 19  1  0  0  0  0
 19 22  1  0  0  0  0
 22  2  1  6  0  0  0
 22 23  1  0  0  0  0
 23 24  1  6  0  0  0
 24 25  1  0  0  0  0
 25 26  1  0  0  0  0
M  CHG  2  13  -1  18  -1
M  END
>  <CHROM.1>
78.48323956,89.13267616,-171.92828263,-52.87024999,92.76003065,-69.27640287
-172.22898406,48.45339788,1.01155133,-16.69147870,-94.37306277,-1.66280408
-0.13774926,-1.31656802

>  <Name>
ligand

>  <RI>
0

>  <Rbt.Current_Directory>
/home/itssahil/PROJECTS/Mol_Feturizer/New_Systems/rnas/2CKY

>  <Rbt.Executable>
rbdock ($Id: //depot/dev/client3/rdock/2013.1/src/exe/rbdock.cxx#4 $)

>  <Rbt.Library>
libRbt.so (2013.1, Build901 2013/11/27)

>  <Rbt.Parameter_File>
/export/apps/rDock/src/rDock_2013.1_src/data/scripts/dock_solv.prm

>  <Rbt.Receptor>
prm/pocket_docking_2.prm

>  <SCORE>
-18.8443

>  <SCORE.INTER>
-14.0463

>  <SCORE.INTER.CONST>
1

>  <SCORE.INTER.POLAR>
0

>  <SCORE.INTER.ROT>
8

>  <SCORE.INTER.SOLV>
9.5468

>  <SCORE.INTER.VDW>
-21.4798

>  <SCORE.INTER.norm>
-0.540243

>  <SCORE.INTRA>
-4.79803

>  <SCORE.INTRA.DIHEDRAL>
-10.3716

>  <SCORE.INTRA.DIHEDRAL.0>
16.4846

>  <SCORE.INTRA.POLAR>
0

>  <SCORE.INTRA.POLAR.0>
0

>  <SCORE.INTRA.REPUL>
0

>  <SCORE.INTRA.REPUL.0>
0

>  <SCORE.INTRA.SOLV>
4.40112

>  <SCORE.INTRA.SOLV.lig_0>
-82.6983

>  <SCORE.INTRA.VDW>
-1.81276

>  <SCORE.INTRA.VDW.0>
-2.11466

>  <SCORE.INTRA.norm>
-0.184539

>  <SCORE.RESTR>
0

>  <SCORE.RESTR.CAVITY>
0

>  <SCORE.RESTR.norm>
0

>  <SCORE.SYSTEM>
0

>  <SCORE.SYSTEM.CONST>
0

>  <SCORE.SYSTEM.DIHEDRAL>
0

>  <SCORE.SYSTEM.SOLV>
0

>  <SCORE.SYSTEM.norm>
0

>  <SCORE.heavy>
26

>  <SCORE.norm>
-0.724782

>  <RMSD>
1.817

$$$$
ligand
 OpenBabel11021811423D
libRbt.so/2013.1/901 2013/11/27
 26 27  0  0  0  0  0  0  0  0999 V2000
    0.1382  -19.0155  -86.4929 C   0  0  0  0  0  0  0  0  0  0  0  0
    0.5520  -15.5936  -92.1347 C   0  0  0  0  0  0  0  0  0  0  0  0
   -0.0422  -15.3887  -97.9161 P   0  0  2  0  0  0  0  0  0  0  0  0
    2.2289  -14.2343  -99.0022 P   0  0  2  0  0  0  0  0  0  0  0  0
    2.9437  -17.4455  -91.2394 C   0  0  0  0  0  0  0  0  0  0  0  0
    1.0107  -18.4620  -90.0602 C   0  0  0  0  0  0  0  0  0  0  0  0
    2.2366  -17.8160  -89.9661 C   0  0  0  0  0  0  0  0  0  0  0  0
    2.7835  -17.5880  -88.6999 C   0  0  0  0  0  0  0  0  0  0  0  0
    3.9562  -16.9905  -88.4865 N   0  0  0  0  0  0  0  0  0  0  0  0
    2.0851  -17.9907  -87.5910 N   0  0  0  0  0  0  0  0  0  0  0  0
    0.8716  -18.6066  -87.7146 C   0  0  0  0  0  0  0  0  0  0  0  0
    0.3227  -18.8542  -88.9320 N   0  0  0  0  0  0  0  0  0  0  0  0
    0.7264  -16.6070  -98.3883 O   0  5  0  0  0  0  0  0  0  0  0  0
    3.0033  -14.9477  -97.9169 O   0  0  0  0  0  0  0  0  0  0  0  0
    1.2695  -18.5482  -94.6083 S   0  0  0  0  0  0  0  0  0  0  0  0
    2.3144  -18.5772  -93.3579 C   0  0  0  0  0  0  0  0  0  0  0  0
   -1.4912  -15.6033  -98.3452 O   0  0  0  0  0  0  0  0  0  0  0  0
    2.7590  -12.8357  -99.2445 O   0  5  0  0  0  0  0  0  0  0  0  0
    2.1430  -17.5632  -92.4346 N   0  0  0  0  0  0  0  0  0  0  0  0
    0.7293  -14.0884  -98.4817 O   0  0  0  0  0  0  0  0  0  0  0  0
    2.3123  -15.0633 -100.2678 O   0  0  0  0  0  0  0  0  0  0  0  0
    1.0908  -16.7772  -92.8351 C   0  0  1  0  0  0  0  0  0  0  0  0
    0.5361  -17.2506  -94.0346 C   0  0  2  0  0  0  0  0  0  0  0  0
   -0.6094  -16.8257  -94.9199 C   0  0  0  0  0  0  0  0  0  0  0  0
   -0.5432  -15.3277  -95.2357 C   0  0  0  0  0  0  0  0  0  0  0  0
    0.3341  -15.1143  -96.3347 O   0  0  0  0  0  0  0  0  0  0  0  0
  1 11  1  0  0  0  0
  3 13  1  6  0  0  0
  3 17  2  0  0  0  0
  3 20  1  0  0  0  0
  3 26  1  0  0  0  0
  4 14  1  1  0  0  0
  4 18  1  0  0  0  0
  4 21  2  0  0  0  0
  4 20  1  0  0  0  0
  5 19  1  0  0  0  0
  5  7  1  0  0  0  0
  6  7  2  0  0  0  0
  6 12  1  0  0  0  0
  7  8  1  0  0  0  0
  8  9  1  0  0  0  0
  8 10  2  0  0  0  0
 10 11  1  0  0  0  0
 11 12  2  0  0  0  0
 15 23  1  0  0  0  0
 15 16  1  0  0  0  0
 16 19  1  0  0  0  0
 19 22  1  0  0  0  0
 22  2  1  1  0  0  0
 22 23  1  0  0  0  0
 23 24  1  1  0  0  0
 24 25  1  0  0  0  0
 25 26  1  0  0  0  0
M  CHG  2  13  -1  18  -1
M  END
>  <CHROM.1>
-16.72287573,-106.38073301,11.93107277,-50.60576016,-130.86579618,83.88738812
77.55430689,-108.84129728,1.26069133,-16.49392390,-94.30095715,1.53268357
0.36813783,1.91676739

>  <Name>
ligand

>  <RI>
0

>  <Rbt.Current_Directory>
/home/itssahil/PROJECTS/Mol_Feturizer/New_Systems/rnas/2CKY

>  <Rbt.Executable>
rbdock ($Id: //depot/dev/client3/rdock/2013.1/src/exe/rbdock.cxx#4 $)

>  <Rbt.Library>
libRbt.so (2013.1, Build901 2013/11/27)

>  <Rbt.Parameter_File>
/export/apps/rDock/src/rDock_2013.1_src/data/scripts/dock_solv.prm

>  <Rbt.Receptor>
prm/pocket_docking_2.prm

>  <SCORE>
-14.8514

>  <SCORE.INTER>
-11.5646

>  <SCORE.INTER.CONST>
1

>  <SCORE.INTER.POLAR>
0

>  <SCORE.INTER.ROT>
8

>  <SCORE.INTER.SOLV>
15.0796

>  <SCORE.INTER.VDW>
-21.6696

>  <SCORE.INTER.norm>
-0.444794

>  <SCORE.INTRA>
-3.35908

>  <SCORE.INTRA.DIHEDRAL>
-4.74806

>  <SCORE.INTRA.DIHEDRAL.0>
16.4846

>  <SCORE.INTRA.POLAR>
0

>  <SCORE.INTRA.POLAR.0>
0

>  <SCORE.INTRA.REPUL>
0

>  <SCORE.INTRA.REPUL.0>
0

>  <SCORE.INTRA.SOLV>
0.644565

>  <SCORE.INTRA.SOLV.lig_0>
-82.6983

>  <SCORE.INTRA.VDW>
-1.30734

>  <SCORE.INTRA.VDW.0>
-2.11466

>  <SCORE.INTRA.norm>
-0.129196

>  <SCORE.RESTR>
0.0723091

>  <SCORE.RESTR.CAVITY>
0.0723091

>  <SCORE.RESTR.norm>
0.00278112

>  <SCORE.SYSTEM>
0

>  <SCORE.SYSTEM.CONST>
0

>  <SCORE.SYSTEM.DIHEDRAL>
0

>  <SCORE.SYSTEM.SOLV>
0

>  <SCORE.SYSTEM.norm>
0

>  <SCORE.heavy>
26

>  <SCORE.norm>
-0.571208

>  <RMSD>
1.818

$$$$
ligand
 OpenBabel11021811423D
libRbt.so/2013.1/901 2013/11/27
 26 27  0  0  0  0  0  0  0  0999 V2000
   -0.0143  -19.1021  -85.9389 C   0  0  0  0  0  0  0  0  0  0  0  0
    2.7562  -17.7217  -93.9313 C   0  0  0  0  0  0  0  0  0  0  0  0
   -0.6830  -15.3887  -98.0013 P   0  0  2  0  0  0  0  0  0  0  0  0
    1.0951  -15.3431 -100.1242 P   0  0  2  0  0  0  0  0  0  0  0  0
    2.5928  -17.5054  -90.7884 C   0  0  0  0  0  0  0  0  0  0  0  0
    2.4536  -17.6693  -88.3158 C   0  0  0  0  0  0  0  0  0  0  0  0
    1.8824  -17.9657  -89.5466 C   0  0  0  0  0  0  0  0  0  0  0  0
    0.6514  -18.6274  -89.5772 C   0  0  0  0  0  0  0  0  0  0  0  0
    0.0026  -18.9521  -90.6958 N   0  0  0  0  0  0  0  0  0  0  0  0
    0.0560  -18.9803  -88.3938 N   0  0  0  0  0  0  0  0  0  0  0  0
    0.6518  -18.6925  -87.1982 C   0  0  0  0  0  0  0  0  0  0  0  0
    1.8403  -18.0378  -87.1376 N   0  0  0  0  0  0  0  0  0  0  0  0
   -1.8601  -15.4038  -98.9563 O   0  5  0  0  0  0  0  0  0  0  0  0
    1.4499  -13.9148  -99.7767 O   0  0  0  0  0  0  0  0  0  0  0  0
   -0.0437  -15.2902  -92.6620 S   0  0  0  0  0  0  0  0  0  0  0  0
    0.7492  -15.9612  -91.4061 C   0  0  0  0  0  0  0  0  0  0  0  0
   -0.5561  -13.9526  -97.5000 O   0  0  0  0  0  0  0  0  0  0  0  0
   -0.0338  -15.4126 -101.1325 O   0  5  0  0  0  0  0  0  0  0  0  0
    1.7530  -16.8437  -91.7581 N   0  0  0  0  0  0  0  0  0  0  0  0
    0.5750  -16.0306  -98.7834 O   0  0  0  0  0  0  0  0  0  0  0  0
    2.3367  -16.0222 -100.6655 O   0  0  0  0  0  0  0  0  0  0  0  0
    1.8163  -16.9137  -93.1279 C   0  0  1  0  0  0  0  0  0  0  0  0
    0.8563  -16.0781  -93.7202 C   0  0  2  0  0  0  0  0  0  0  0  0
    0.4715  -15.7347  -95.1381 C   0  0  0  0  0  0  0  0  0  0  0  0
    0.0810  -16.9882  -95.9283 C   0  0  0  0  0  0  0  0  0  0  0  0
   -0.8562  -16.6373  -96.9390 O   0  0  0  0  0  0  0  0  0  0  0  0
  1 11  1  0  0  0  0
  3 13  1  6  0  0  0
  3 17  2  0  0  0  0
  3 20  1  0  0  0  0
  3 26  1  0  0  0  0
  4 14  1  1  0  0  0
  4 18  1  0  0  0  0
  4 21  2  0  0  0  0
  4 20  1  0  0  0  0
  5 19  1  0  0  0  0
  5  7  1  0  0  0  0
  6  7  2  0  0  0  0
  6 12  1  0  0  0  0
  7  8  1  0  0  0  0
  8  9  1  0  0  0  0
  8 10  2  0  0  0  0
 10 11  1  0  0  0  0
 11 12  2  0  0  0  0
 15 23  1  0  0  0  0
 15 16  1  0  0  0  0
 16 19  1  0  0  0  0
 19 22  1  0  0  0  0
 22  2  1  6  0  0  0
 22 23  1  0  0  0  0
 23 24  1  6  0  0  0
 24 25  1  0  0  0  0
 25 26  1  0  0  0  0
M  CHG  2  13  -1  18  -1
M  END
>  <CHROM.1>
59.91111420,39.54261788,-132.29164201,57.63006426,-122.71149445,151.35985463
49.05825462,176.94840090,0.65407951,-16.50252078,-94.39355625,1.50683087
-0.22492304,1.81440068

>  <Name>
ligand

>  <RI>
0

>  <Rbt.Current_Directory>
/home/itssahil/PROJECTS/Mol_Feturizer/New_Systems/rnas/2CKY

>  <Rbt.Executable>
rbdock ($Id: //depot/dev/client3/rdock/2013.1/src/exe/rbdock.cxx#4 $)

>  <Rbt.Library>
libRbt.so (2013.1, Build901 2013/11/27)

>  <Rbt.Parameter_File>
/export/apps/rDock/src/rDock_2013.1_src/data/scripts/dock_solv.prm

>  <Rbt.Receptor>
prm/pocket_docking_2.prm

>  <SCORE>
-16.5771

>  <SCORE.INTER>
-12.9204

>  <SCORE.INTER.CONST>
1

>  <SCORE.INTER.POLAR>
0

>  <SCORE.INTER.ROT>
8

>  <SCORE.INTER.SOLV>
10.8287

>  <SCORE.INTER.VDW>
-21.1565

>  <SCORE.INTER.norm>
-0.496939

>  <SCORE.INTRA>
-3.68953

>  <SCORE.INTRA.DIHEDRAL>
-8.69988

>  <SCORE.INTRA.DIHEDRAL.0>
16.4846

>  <SCORE.INTRA.POLAR>
0

>  <SCORE.INTRA.POLAR.0>
0

>  <SCORE.INTRA.REPUL>
0

>  <SCORE.INTRA.REPUL.0>
0

>  <SCORE.INTRA.SOLV>
3.41609

>  <SCORE.INTRA.SOLV.lig_0>
-82.6983

>  <SCORE.INTRA.VDW>
-1.04763

>  <SCORE.INTRA.VDW.0>
-2.11466

>  <SCORE.INTRA.norm>
-0.141905

>  <SCORE.RESTR>
0.032851

>  <SCORE.RESTR.CAVITY>
0.032851

>  <SCORE.RESTR.norm>
0.0012635

>  <SCORE.SYSTEM>
0

>  <SCORE.SYSTEM.CONST>
0

>  <SCORE.SYSTEM.DIHEDRAL>
0

>  <SCORE.SYSTEM.SOLV>
0

>  <SCORE.SYSTEM.norm>
0

>  <SCORE.heavy>
26

>  <SCORE.norm>
-0.63758

>  <RMSD>
1.851

$$$$
ligand
 OpenBabel11021811423D
libRbt.so/2013.1/901 2013/11/27
 26 27  0  0  0  0  0  0  0  0999 V2000
    0.0576  -18.9912  -85.9463 C   0  0  0  0  0  0  0  0  0  0  0  0
   -0.2454  -18.6473  -93.0578 C   0  0  0  0  0  0  0  0  0  0  0  0
    0.4021  -14.3105  -97.4409 P   0  0  2  0  0  0  0  0  0  0  0  0
    0.1441  -15.6020  -99.8772 P   0  0  2  0  0  0  0  0  0  0  0  0
    2.0355  -17.6033  -91.1450 C   0  0  0  0  0  0  0  0  0  0  0  0
    0.3019  -18.5168  -89.6217 C   0  0  0  0  0  0  0  0  0  0  0  0
    1.5519  -17.9272  -89.7594 C   0  0  0  0  0  0  0  0  0  0  0  0
    2.3255  -17.7111  -88.6153 C   0  0  0  0  0  0  0  0  0  0  0  0
    3.5424  -17.1661  -88.6253 N   0  0  0  0  0  0  0  0  0  0  0  0
    1.8197  -18.0693  -87.3925 N   0  0  0  0  0  0  0  0  0  0  0  0
    0.5780  -18.6298  -87.2865 C   0  0  0  0  0  0  0  0  0  0  0  0
   -0.1898  -18.8647  -88.3819 N   0  0  0  0  0  0  0  0  0  0  0  0
   -0.3892  -13.1065  -97.9123 O   0  5  0  0  0  0  0  0  0  0  0  0
   -0.5486  -14.3845 -100.4468 O   0  0  0  0  0  0  0  0  0  0  0  0
    0.0803  -14.7421  -92.9778 S   0  0  0  0  0  0  0  0  0  0  0  0
    1.1700  -15.4315  -91.9811 C   0  0  0  0  0  0  0  0  0  0  0  0
    1.8745  -13.9198  -97.5363 O   0  0  0  0  0  0  0  0  0  0  0  0
   -0.4546  -16.8889 -100.4074 O   0  5  0  0  0  0  0  0  0  0  0  0
    1.1240  -16.8121  -91.9365 N   0  0  0  0  0  0  0  0  0  0  0  0
   -0.1009  -15.5798  -98.3022 O   0  0  0  0  0  0  0  0  0  0  0  0
    1.6166  -15.5157 -100.2239 O   0  0  0  0  0  0  0  0  0  0  0  0
    0.1351  -17.2466  -92.7843 C   0  0  1  0  0  0  0  0  0  0  0  0
   -0.4999  -16.1647  -93.4143 C   0  0  2  0  0  0  0  0  0  0  0  0
   -1.6098  -16.0226  -94.4264 C   0  0  0  0  0  0  0  0  0  0  0  0
   -1.0583  -15.9818  -95.8556 C   0  0  0  0  0  0  0  0  0  0  0  0
   -0.2386  -14.8303  -96.0136 O   0  0  0  0  0  0  0  0  0  0  0  0
  1 11  1  0  0  0  0
  3 13  1  6  0  0  0
  3 17  2  0  0  0  0
  3 20  1  0  0  0  0
  3 26  1  0  0  0  0
  4 14  1  6  0  0  0
  4 18  1  0  0  0  0
  4 21  2  0  0  0  0
  4 20  1  0  0  0  0
  5 19  1  0  0  0  0
  5  7  1  0  0  0  0
  6  7  2  0  0  0  0
  6 12  1  0  0  0  0
  7  8  1  0  0  0  0
  8  9  1  0  0  0  0
  8 10  2  0  0  0  0
 10 11  1  0  0  0  0
 11 12  2  0  0  0  0
 15 23  1  0  0  0  0
 15 16  1  0  0  0  0
 16 19  1  0  0  0  0
 19 22  1  0  0  0  0
 22  2  1  6  0  0  0
 22 23  1  0  0  0  0
 23 24  1  6  0  0  0
 24 25  1  0  0  0  0
 25 26  1  0  0  0  0
M  CHG  2  13  -1  18  -1
M  END
>  <CHROM.1>
64.29541304,92.02547281,53.11925388,-58.81340408,87.83128133,-63.35262923
-172.28566923,104.51456965,0.45651426,-16.21614194,-94.16230535,1.40928210
0.99752646,1.98921360

>  <Name>
ligand

>  <RI>
0

>  <Rbt.Current_Directory>
/home/itssahil/PROJECTS/Mol_Feturizer/New_Systems/rnas/2CKY

>  <Rbt.Executable>
rbdock ($Id: //depot/dev/client3/rdock/2013.1/src/exe/rbdock.cxx#4 $)

>  <Rbt.Library>
libRbt.so (2013.1, Build901 2013/11/27)

>  <Rbt.Parameter_File>
/export/apps/rDock/src/rDock_2013.1_src/data/scripts/dock_solv.prm

>  <Rbt.Receptor>
prm/pocket_docking_3.prm

>  <SCORE>
-19.2355

>  <SCORE.INTER>
-14.2338

>  <SCORE.INTER.CONST>
1

>  <SCORE.INTER.POLAR>
0

>  <SCORE.INTER.ROT>
8

>  <SCORE.INTER.SOLV>
15.0687

>  <SCORE.INTER.VDW>
-23.4454

>  <SCORE.INTER.norm>
-0.547454

>  <SCORE.INTRA>
-5.00172

>  <SCORE.INTRA.DIHEDRAL>
-9.04323

>  <SCORE.INTRA.DIHEDRAL.0>
16.4846

>  <SCORE.INTRA.POLAR>
0

>  <SCORE.INTRA.POLAR.0>
0

>  <SCORE.INTRA.REPUL>
0

>  <SCORE.INTRA.REPUL.0>
0

>  <SCORE.INTRA.SOLV>
0.00130798

>  <SCORE.INTRA.SOLV.lig_0>
-82.6983

>  <SCORE.INTRA.VDW>
-0.480764

>  <SCORE.INTRA.VDW.0>
-2.11466

>  <SCORE.INTRA.norm>
-0.192374

>  <SCORE.RESTR>
0

>  <SCORE.RESTR.CAVITY>
0

>  <SCORE.RESTR.norm>
0

>  <SCORE.SYSTEM>
0

>  <SCORE.SYSTEM.CONST>
0

>  <SCORE.SYSTEM.DIHEDRAL>
0

>  <SCORE.SYSTEM.SOLV>
0

>  <SCORE.SYSTEM.norm>
0

>  <SCORE.heavy>
26

>  <SCORE.norm>
-0.739827

>  <RMSD>
1.870

$$$$
ligand
 OpenBabel11021811423D
libRbt.so/2013.1/901 2013/11/27
 26 27  0  0  0  0  0  0  0  0999 V2000
    0.1100  -19.0059  -85.8093 C   0  0  0  0  0  0  0  0  0  0  0  0
    2.3623  -17.7001  -94.2144 C   0  0  0  0  0  0  0  0  0  0  0  0
   -1.1968  -16.5879  -98.4804 P   0  0  2  0  0  0  0  0  0  0  0  0
    0.6046  -15.7829 -100.4239 P   0  0  2  0  0  0  0  0  0  0  0  0
    2.0773  -17.8992  -91.0791 C   0  0  0  0  0  0  0  0  0  0  0  0
    0.4596  -18.9333  -89.5060 C   0  0  0  0  0  0  0  0  0  0  0  0
    1.5873  -18.1411  -89.6790 C   0  0  0  0  0  0  0  0  0  0  0  0
    2.2468  -17.6504  -88.5484 C   0  0  0  0  0  0  0  0  0  0  0  0
    3.3433  -16.8929  -88.5900 N   0  0  0  0  0  0  0  0  0  0  0  0
    1.7500  -17.9491  -87.3061 N   0  0  0  0  0  0  0  0  0  0  0  0
    0.6268  -18.7150  -87.1679 C   0  0  0  0  0  0  0  0  0  0  0  0
   -0.0262  -19.2174  -88.2477 N   0  0  0  0  0  0  0  0  0  0  0  0
   -2.3127  -16.9031  -99.4569 O   0  5  0  0  0  0  0  0  0  0  0  0
   -0.5114  -15.8108 -101.4439 O   0  0  0  0  0  0  0  0  0  0  0  0
   -1.2348  -16.8623  -92.9021 S   0  0  0  0  0  0  0  0  0  0  0  0
   -0.2463  -17.2495  -91.6656 C   0  0  0  0  0  0  0  0  0  0  0  0
   -1.4982  -15.2012  -97.9182 O   0  0  0  0  0  0  0  0  0  0  0  0
    1.9143  -16.2697 -101.0100 O   0  5  0  0  0  0  0  0  0  0  0  0
    1.0466  -17.5701  -92.0344 N   0  0  0  0  0  0  0  0  0  0  0  0
    0.1982  -16.7990  -99.2648 O   0  0  0  0  0  0  0  0  0  0  0  0
    0.7438  -14.3638  -99.9116 O   0  0  0  0  0  0  0  0  0  0  0  0
    1.1531  -17.4649  -93.3993 C   0  0  1  0  0  0  0  0  0  0  0  0
   -0.0667  -17.0706  -93.9712 C   0  0  2  0  0  0  0  0  0  0  0  0
   -0.5429  -16.7839  -95.3738 C   0  0  0  0  0  0  0  0  0  0  0  0
   -0.1499  -17.9095  -96.3365 C   0  0  0  0  0  0  0  0  0  0  0  0
   -1.0035  -17.8790  -97.4737 O   0  0  0  0  0  0  0  0  0  0  0  0
  1 11  1  0  0  0  0
  3 13  1  6  0  0  0
  3 17  2  0  0  0  0
  3 20  1  0  0  0  0
  3 26  1  0  0  0  0
  4 14  1  6  0  0  0
  4 18  1  0  0  0  0
  4 21  2  0  0  0  0
  4 20  1  0  0  0  0
  5 19  1  0  0  0  0
  5  7  1  0  0  0  0
  6  7  2  0  0  0  0
  6 12  1  0  0  0  0
  7  8  1  0  0  0  0
  8  9  1  0  0  0  0
  8 10  2  0  0  0  0
 10 11  1  0  0  0  0
 11 12  2  0  0  0  0
 15 23  1  0  0  0  0
 15 16  1  0  0  0  0
 16 19  1  0  0  0  0
 19 22  1  0  0  0  0
 22  2  1  1  0  0  0
 22 23  1  0  0  0  0
 23 24  1  1  0  0  0
 24 25  1  0  0  0  0
 25 26  1  0  0  0  0
M  CHG  2  13  -1  18  -1
M  END
>  <CHROM.1>
69.37469504,11.81003456,44.94590264,-57.34078540,-131.17802802,158.24136760
57.60994283,-173.07945136,0.27249611,-17.09892196,-94.58026913,1.45811052
0.15271748,1.77276528

>  <Name>
ligand

>  <RI>
0

>  <Rbt.Current_Directory>
/home/itssahil/PROJECTS/Mol_Feturizer/New_Systems/rnas/2CKY

>  <Rbt.Executable>
rbdock ($Id: //depot/dev/client3/rdock/2013.1/src/exe/rbdock.cxx#4 $)

>  <Rbt.Library>
libRbt.so (2013.1, Build901 2013/11/27)

>  <Rbt.Parameter_File>
/export/apps/rDock/src/rDock_2013.1_src/data/scripts/dock_solv.prm

>  <Rbt.Receptor>
prm/pocket_docking_3.prm

>  <SCORE>
-19.8174

>  <SCORE.INTER>
-15.1866

>  <SCORE.INTER.CONST>
1

>  <SCORE.INTER.POLAR>
0

>  <SCORE.INTER.ROT>
8

>  <SCORE.INTER.SOLV>
16.056

>  <SCORE.INTER.VDW>
-24.4097

>  <SCORE.INTER.norm>
-0.584099

>  <SCORE.INTRA>
-4.63081

>  <SCORE.INTRA.DIHEDRAL>
-10.0635

>  <SCORE.INTRA.DIHEDRAL.0>
16.4846

>  <SCORE.INTRA.POLAR>
0

>  <SCORE.INTRA.POLAR.0>
0

>  <SCORE.INTRA.REPUL>
0

>  <SCORE.INTRA.REPUL.0>
0

>  <SCORE.INTRA.SOLV>
0.925651

>  <SCORE.INTRA.SOLV.lig_0>
-82.6983

>  <SCORE.INTRA.VDW>
-0.0618962

>  <SCORE.INTRA.VDW.0>
-2.11466

>  <SCORE.INTRA.norm>
-0.178108

>  <SCORE.RESTR>
0

>  <SCORE.RESTR.CAVITY>
0

>  <SCORE.RESTR.norm>
0

>  <SCORE.SYSTEM>
0

>  <SCORE.SYSTEM.CONST>
0

>  <SCORE.SYSTEM.DIHEDRAL>
0

>  <SCORE.SYSTEM.SOLV>
0

>  <SCORE.SYSTEM.norm>
0

>  <SCORE.heavy>
26

>  <SCORE.norm>
-0.762207

>  <RMSD>
1.884

$$$$
ligand
 OpenBabel11021811423D
libRbt.so/2013.1/901 2013/11/27
 26 27  0  0  0  0  0  0  0  0999 V2000
    0.1291  -19.0280  -85.7830 C   0  0  0  0  0  0  0  0  0  0  0  0
    1.6500  -18.5546  -93.7251 C   0  0  0  0  0  0  0  0  0  0  0  0
   -0.2701  -15.3831  -98.0073 P   0  0  2  0  0  0  0  0  0  0  0  0
    0.8175  -14.3828 -100.3497 P   0  0  2  0  0  0  0  0  0  0  0  0
    2.4253  -17.5710  -90.8297 C   0  0  0  0  0  0  0  0  0  0  0  0
    2.3937  -17.5838  -88.3480 C   0  0  0  0  0  0  0  0  0  0  0  0
    1.7984  -17.9983  -89.5324 C   0  0  0  0  0  0  0  0  0  0  0  0
    0.6180  -18.7445  -89.4689 C   0  0  0  0  0  0  0  0  0  0  0  0
   -0.0483  -19.1853  -90.5364 N   0  0  0  0  0  0  0  0  0  0  0  0
    0.0957  -19.0607  -88.2415 N   0  0  0  0  0  0  0  0  0  0  0  0
    0.7149  -18.6554  -87.0927 C   0  0  0  0  0  0  0  0  0  0  0  0
    1.8545  -17.9171  -87.1240 N   0  0  0  0  0  0  0  0  0  0  0  0
   -1.6102  -16.0870  -98.0899 O   0  5  0  0  0  0  0  0  0  0  0  0
   -0.5018  -13.7296 -100.6954 O   0  0  0  0  0  0  0  0  0  0  0  0
   -0.0497  -15.1746  -92.7005 S   0  0  0  0  0  0  0  0  0  0  0  0
    0.8870  -15.7379  -91.4916 C   0  0  0  0  0  0  0  0  0  0  0  0
   -0.5669  -13.9431  -97.5972 O   0  0  0  0  0  0  0  0  0  0  0  0
    1.5186  -14.9201 -101.5807 O   0  5  0  0  0  0  0  0  0  0  0  0
    1.5227  -16.9355  -91.7596 N   0  0  0  0  0  0  0  0  0  0  0  0
    0.4859  -15.6287  -99.4123 O   0  0  0  0  0  0  0  0  0  0  0  0
    1.6843  -13.3582  -99.6463 O   0  0  0  0  0  0  0  0  0  0  0  0
    1.1830  -17.3394  -93.0273 C   0  0  1  0  0  0  0  0  0  0  0  0
    0.3136  -16.4190  -93.6334 C   0  0  2  0  0  0  0  0  0  0  0  0
   -0.3628  -16.3181  -94.9784 C   0  0  0  0  0  0  0  0  0  0  0  0
    0.3690  -17.1541  -96.0339 C   0  0  0  0  0  0  0  0  0  0  0  0
    0.7559  -16.3162  -97.1160 O   0  0  0  0  0  0  0  0  0  0  0  0
  1 11  1  0  0  0  0
  3 13  1  6  0  0  0
  3 17  2  0  0  0  0
  3 20  1  0  0  0  0
  3 26  1  0  0  0  0
  4 14  1  6  0  0  0
  4 18  1  0  0  0  0
  4 21  2  0  0  0  0
  4 20  1  0  0  0  0
  5 19  1  0  0  0  0
  5  7  1  0  0  0  0
  6  7  2  0  0  0  0
  6 12  1  0  0  0  0
  7  8  1  0  0  0  0
  8  9  1  0  0  0  0
  8 10  2  0  0  0  0
 10 11  1  0  0  0  0
 11 12  2  0  0  0  0
 15 23  1  0  0  0  0
 15 16  1  0  0  0  0
 16 19  1  0  0  0  0
 19 22  1  0  0  0  0
 22  2  1  6  0  0  0
 22 23  1  0  0  0  0
 23 24  1  6  0  0  0
 24 25  1  0  0  0  0
 25 26  1  0  0  0  0
M  CHG  2  13  -1  18  -1
M  END
>  <CHROM.1>
116.36245152,63.31955214,-127.55389774,-59.93424296,157.84168233,-122.70758459
-56.56645180,-32.40221652,0.59155730,-16.37293325,-94.39552001,1.33587274
-1.33743584,1.65076517

>  <Name>
ligand

>  <RI>
0

>  <Rbt.Current_Directory>
/home/itssahil/PROJECTS/Mol_Feturizer/New_Systems/rnas/2CKY

>  <Rbt.Executable>
rbdock ($Id: //depot/dev/client3/rdock/2013.1/src/exe/rbdock.cxx#4 $)

>  <Rbt.Library>
libRbt.so (2013.1, Build901 2013/11/27)

>  <Rbt.Parameter_File>
/export/apps/rDock/src/rDock_2013.1_src/data/scripts/dock_solv.prm

>  <Rbt.Receptor>
prm/pocket_docking_2.prm

>  <SCORE>
-11.8713

>  <SCORE.INTER>
-12.9613

>  <SCORE.INTER.CONST>
1

>  <SCORE.INTER.POLAR>
0

>  <SCORE.INTER.ROT>
8

>  <SCORE.INTER.SOLV>
12.4561

>  <SCORE.INTER.VDW>
-21.7262

>  <SCORE.INTER.norm>
-0.498511

>  <SCORE.INTRA>
0.885543

>  <SCORE.INTRA.DIHEDRAL>
-2.25053

>  <SCORE.INTRA.DIHEDRAL.0>
16.4846

>  <SCORE.INTRA.POLAR>
0

>  <SCORE.INTRA.POLAR.0>
0

>  <SCORE.INTRA.REPUL>
0

>  <SCORE.INTRA.REPUL.0>
0

>  <SCORE.INTRA.SOLV>
3.66936

>  <SCORE.INTRA.SOLV.lig_0>
-82.6983

>  <SCORE.INTRA.VDW>
0.176128

>  <SCORE.INTRA.VDW.0>
-2.11466

>  <SCORE.INTRA.norm>
0.0340593

>  <SCORE.RESTR>
0.204398

>  <SCORE.RESTR.CAVITY>
0.204398

>  <SCORE.RESTR.norm>
0.00786146

>  <SCORE.SYSTEM>
0

>  <SCORE.SYSTEM.CONST>
0

>  <SCORE.SYSTEM.DIHEDRAL>
0

>  <SCORE.SYSTEM.SOLV>
0

>  <SCORE.SYSTEM.norm>
0

>  <SCORE.heavy>
26

>  <SCORE.norm>
-0.45659

>  <RMSD>
1.885

$$$$
ligand
 OpenBabel11021811423D
libRbt.so/2013.1/901 2013/11/27
 26 27  0  0  0  0  0  0  0  0999 V2000
   -0.0622  -19.1797  -86.0371 C   0  0  0  0  0  0  0  0  0  0  0  0
    0.5904  -14.9138  -92.7690 C   0  0  0  0  0  0  0  0  0  0  0  0
   -1.1755  -15.5556  -98.7825 P   0  0  2  0  0  0  0  0  0  0  0  0
    0.6430  -13.6365  -99.6076 P   0  0  2  0  0  0  0  0  0  0  0  0
    1.9621  -17.1319  -90.9942 C   0  0  0  0  0  0  0  0  0  0  0  0
    0.1514  -18.0566  -89.5707 C   0  0  0  0  0  0  0  0  0  0  0  0
    1.4726  -17.6393  -89.6670 C   0  0  0  0  0  0  0  0  0  0  0  0
    2.3011  -17.7590  -88.5474 C   0  0  0  0  0  0  0  0  0  0  0  0
    3.5863  -17.4045  -88.5247 N   0  0  0  0  0  0  0  0  0  0  0  0
    1.7800  -18.2656  -87.3850 N   0  0  0  0  0  0  0  0  0  0  0  0
    0.4705  -18.6498  -87.3149 C   0  0  0  0  0  0  0  0  0  0  0  0
   -0.3538  -18.5585  -88.3904 N   0  0  0  0  0  0  0  0  0  0  0  0
   -0.1733  -16.5976  -99.2386 O   0  5  0  0  0  0  0  0  0  0  0  0
   -0.1177  -13.6243 -100.9144 O   0  0  0  0  0  0  0  0  0  0  0  0
   -0.4544  -18.5681  -93.7267 S   0  0  0  0  0  0  0  0  0  0  0  0
    0.6142  -18.5783  -92.4962 C   0  0  0  0  0  0  0  0  0  0  0  0
   -2.2701  -15.5196  -99.8457 O   0  0  0  0  0  0  0  0  0  0  0  0
    1.8320  -14.5742  -99.6578 O   0  5  0  0  0  0  0  0  0  0  0  0
    1.0483  -17.3294  -92.0939 N   0  0  0  0  0  0  0  0  0  0  0  0
   -0.3540  -14.1957  -98.4966 O   0  0  0  0  0  0  0  0  0  0  0  0
    1.0918  -12.2209  -99.3067 O   0  0  0  0  0  0  0  0  0  0  0  0
    0.4308  -16.3787  -92.8688 C   0  0  1  0  0  0  0  0  0  0  0  0
   -0.4301  -16.9731  -93.8048 C   0  0  2  0  0  0  0  0  0  0  0  0
   -1.3583  -16.4576  -94.8769 C   0  0  0  0  0  0  0  0  0  0  0  0
   -0.6334  -16.3144  -96.2194 C   0  0  0  0  0  0  0  0  0  0  0  0
   -1.5475  -15.8450  -97.2028 O   0  0  0  0  0  0  0  0  0  0  0  0
  1 11  1  0  0  0  0
  3 13  1  6  0  0  0
  3 17  2  0  0  0  0
  3 20  1  0  0  0  0
  3 26  1  0  0  0  0
  4 14  1  6  0  0  0
  4 18  1  0  0  0  0
  4 21  2  0  0  0  0
  4 20  1  0  0  0  0
  5 19  1  0  0  0  0
  5  7  1  0  0  0  0
  6  7  2  0  0  0  0
  6 12  1  0  0  0  0
  7  8  1  0  0  0  0
  8  9  1  0  0  0  0
  8 10  2  0  0  0  0
 10 11  1  0  0  0  0
 11 12  2  0  0  0  0
 15 23  1  0  0  0  0
 15 16  1  0  0  0  0
 16 19  1  0  0  0  0
 19 22  1  0  0  0  0
 22  2  1  1  0  0  0
 22 23  1  0  0  0  0
 23 24  1  1  0  0  0
 24 25  1  0  0  0  0
 25 26  1  0  0  0  0
M  CHG  2  13  -1  18  -1
M  END
>  <CHROM.1>
50.71292801,-60.12175733,-9.26834545,49.21599256,-90.66630889,179.18824955
-179.98384661,36.19516364,0.23171509,-16.36625975,-94.48548253,1.43408249
0.66213328,1.98673732

>  <Name>
ligand

>  <RI>
0

>  <Rbt.Current_Directory>
/home/itssahil/PROJECTS/Mol_Feturizer/New_Systems/rnas/2CKY

>  <Rbt.Executable>
rbdock ($Id: //depot/dev/client3/rdock/2013.1/src/exe/rbdock.cxx#4 $)

>  <Rbt.Library>
libRbt.so (2013.1, Build901 2013/11/27)

>  <Rbt.Parameter_File>
/export/apps/rDock/src/rDock_2013.1_src/data/scripts/dock_solv.prm

>  <Rbt.Receptor>
prm/pocket_docking_2.prm

>  <SCORE>
-19.6577

>  <SCORE.INTER>
-13.6707

>  <SCORE.INTER.CONST>
1

>  <SCORE.INTER.POLAR>
0

>  <SCORE.INTER.ROT>
8

>  <SCORE.INTER.SOLV>
17.1207

>  <SCORE.INTER.VDW>
-23.754

>  <SCORE.INTER.norm>
-0.525797

>  <SCORE.INTRA>
-5.987

>  <SCORE.INTRA.DIHEDRAL>
-10.4937

>  <SCORE.INTRA.DIHEDRAL.0>
16.4846

>  <SCORE.INTRA.POLAR>
0

>  <SCORE.INTRA.POLAR.0>
0

>  <SCORE.INTRA.REPUL>
0

>  <SCORE.INTRA.REPUL.0>
0

>  <SCORE.INTRA.SOLV>
0.247397

>  <SCORE.INTRA.SOLV.lig_0>
-82.6983

>  <SCORE.INTRA.VDW>
-0.863837

>  <SCORE.INTRA.VDW.0>
-2.11466

>  <SCORE.INTRA.norm>
-0.230269

>  <SCORE.RESTR>
0

>  <SCORE.RESTR.CAVITY>
0

>  <SCORE.RESTR.norm>
0

>  <SCORE.SYSTEM>
0

>  <SCORE.SYSTEM.CONST>
0

>  <SCORE.SYSTEM.DIHEDRAL>
0

>  <SCORE.SYSTEM.SOLV>
0

>  <SCORE.SYSTEM.norm>
0

>  <SCORE.heavy>
26

>  <SCORE.norm>
-0.756066

>  <RMSD>
1.892

$$$$
ligand
 OpenBabel11021811423D
libRbt.so/2013.1/901 2013/11/27
 26 27  0  0  0  0  0  0  0  0999 V2000
    0.0477  -18.8972  -85.5772 C   0  0  0  0  0  0  0  0  0  0  0  0
   -0.4402  -18.2241  -93.5247 C   0  0  0  0  0  0  0  0  0  0  0  0
   -0.4899  -13.5562  -97.9424 P   0  0  2  0  0  0  0  0  0  0  0  0
   -0.0933  -15.2046 -100.1324 P   0  0  2  0  0  0  0  0  0  0  0  0
    1.5395  -18.2022  -91.0687 C   0  0  0  0  0  0  0  0  0  0  0  0
    0.0042  -19.0005  -89.2895 C   0  0  0  0  0  0  0  0  0  0  0  0
    1.1808  -18.3385  -89.6157 C   0  0  0  0  0  0  0  0  0  0  0  0
    2.0039  -17.8779  -88.5839 C   0  0  0  0  0  0  0  0  0  0  0  0
    3.1603  -17.2421  -88.7747 N   0  0  0  0  0  0  0  0  0  0  0  0
    1.6157  -18.0759  -87.2841 N   0  0  0  0  0  0  0  0  0  0  0  0
    0.4424  -18.7136  -86.9943 C   0  0  0  0  0  0  0  0  0  0  0  0
   -0.3699  -19.1845  -87.9756 N   0  0  0  0  0  0  0  0  0  0  0  0
   -1.5758  -12.6949  -98.5565 O   0  5  0  0  0  0  0  0  0  0  0  0
   -0.6447  -14.0433 -100.9285 O   0  0  0  0  0  0  0  0  0  0  0  0
    0.5054  -14.6248  -92.2942 S   0  0  0  0  0  0  0  0  0  0  0  0
    1.2371  -15.7573  -91.3786 C   0  0  0  0  0  0  0  0  0  0  0  0
    0.8143  -12.7792  -98.1006 O   0  0  0  0  0  0  0  0  0  0  0  0
   -0.6389  -16.5309 -100.6211 O   0  5  0  0  0  0  0  0  0  0  0  0
    0.9545  -17.0627  -91.7340 N   0  0  0  0  0  0  0  0  0  0  0  0
   -0.5901  -15.0134  -98.6298 O   0  0  0  0  0  0  0  0  0  0  0  0
    1.4179  -15.1775 -100.2383 O   0  0  0  0  0  0  0  0  0  0  0  0
    0.1030  -17.0504  -92.8112 C   0  0  1  0  0  0  0  0  0  0  0  0
   -0.2004  -15.7358  -93.1988 C   0  0  2  0  0  0  0  0  0  0  0  0
   -1.0390  -15.1122  -94.2870 C   0  0  0  0  0  0  0  0  0  0  0  0
   -0.1766  -14.6866  -95.4800 C   0  0  0  0  0  0  0  0  0  0  0  0
   -0.9966  -14.0535  -96.4545 O   0  0  0  0  0  0  0  0  0  0  0  0
  1 11  1  0  0  0  0
  3 13  1  6  0  0  0
  3 17  2  0  0  0  0
  3 20  1  0  0  0  0
  3 26  1  0  0  0  0
  4 14  1  6  0  0  0
  4 18  1  0  0  0  0
  4 21  2  0  0  0  0
  4 20  1  0  0  0  0
  5 19  1  0  0  0  0
  5  7  1  0  0  0  0
  6  7  2  0  0  0  0
  6 12  1  0  0  0  0
  7  8  1  0  0  0  0
  8  9  1  0  0  0  0
  8 10  2  0  0  0  0
 10 11  1  0  0  0  0
 11 12  2  0  0  0  0
 15 23  1  0  0  0  0
 15 16  1  0  0  0  0
 16 19  1  0  0  0  0
 19 22  1  0  0  0  0
 22  2  1  6  0  0  0
 22 23  1  0  0  0  0
 23 24  1  6  0  0  0
 24 25  1  0  0  0  0
 25 26  1  0  0  0  0
M  CHG  2  13  -1  18  -1
M  END
>  <CHROM.1>
73.56344715,63.21901103,85.87310946,-45.07951233,81.09304558,-177.51472200
-174.72543612,-168.87390326,0.22413127,-15.94512593,-94.18771023,0.08223468
-1.46510907,0.41323511

>  <Name>
ligand

>  <RI>
0

>  <Rbt.Current_Directory>
/home/itssahil/PROJECTS/Mol_Feturizer/New_Systems/rnas/2CKY

>  <Rbt.Executable>
rbdock ($Id: //depot/dev/client3/rdock/2013.1/src/exe/rbdock.cxx#4 $)

>  <Rbt.Library>
libRbt.so (2013.1, Build901 2013/11/27)

>  <Rbt.Parameter_File>
/export/apps/rDock/src/rDock_2013.1_src/data/scripts/dock_solv.prm

>  <Rbt.Receptor>
prm/pocket_docking_3.prm

>  <SCORE>
-19.9084

>  <SCORE.INTER>
-13.623

>  <SCORE.INTER.CONST>
1

>  <SCORE.INTER.POLAR>
0

>  <SCORE.INTER.ROT>
8

>  <SCORE.INTER.SOLV>
16.3956

>  <SCORE.INTER.VDW>
-23.4805

>  <SCORE.INTER.norm>
-0.52396

>  <SCORE.INTRA>
-6.28546

>  <SCORE.INTRA.DIHEDRAL>
-10.3144

>  <SCORE.INTRA.DIHEDRAL.0>
16.4846

>  <SCORE.INTRA.POLAR>
0

>  <SCORE.INTRA.POLAR.0>
0

>  <SCORE.INTRA.REPUL>
0

>  <SCORE.INTRA.REPUL.0>
0

>  <SCORE.INTRA.SOLV>
0.266728

>  <SCORE.INTRA.SOLV.lig_0>
-82.6983

>  <SCORE.INTRA.VDW>
-1.26161

>  <SCORE.INTRA.VDW.0>
-2.11466

>  <SCORE.INTRA.norm>
-0.241748

>  <SCORE.RESTR>
0

>  <SCORE.RESTR.CAVITY>
0

>  <SCORE.RESTR.norm>
0

>  <SCORE.SYSTEM>
0

>  <SCORE.SYSTEM.CONST>
0

>  <SCORE.SYSTEM.DIHEDRAL>
0

>  <SCORE.SYSTEM.SOLV>
0

>  <SCORE.SYSTEM.norm>
0

>  <SCORE.heavy>
26

>  <SCORE.norm>
-0.765708

>  <RMSD>
1.916

$$$$
ligand
 OpenBabel11021811423D
libRbt.so/2013.1/901 2013/11/27
 26 27  0  0  0  0  0  0  0  0999 V2000
   -0.0027  -19.0749  -85.8498 C   0  0  0  0  0  0  0  0  0  0  0  0
    1.2438  -19.3402  -93.4957 C   0  0  0  0  0  0  0  0  0  0  0  0
    1.6453  -15.9247  -97.5462 P   0  0  2  0  0  0  0  0  0  0  0  0
    0.9460  -15.3998 -100.1742 P   0  0  2  0  0  0  0  0  0  0  0  0
    2.1203  -17.6496  -90.9808 C   0  0  0  0  0  0  0  0  0  0  0  0
    0.4066  -18.6958  -89.5216 C   0  0  0  0  0  0  0  0  0  0  0  0
    1.5927  -17.9790  -89.6126 C   0  0  0  0  0  0  0  0  0  0  0  0
    2.2701  -17.6436  -88.4366 C   0  0  0  0  0  0  0  0  0  0  0  0
    3.4206  -16.9707  -88.4003 N   0  0  0  0  0  0  0  0  0  0  0  0
    1.7338  -18.0147  -87.2308 N   0  0  0  0  0  0  0  0  0  0  0  0
    0.5546  -18.7027  -87.1721 C   0  0  0  0  0  0  0  0  0  0  0  0
   -0.1178  -19.0547  -88.2984 N   0  0  0  0  0  0  0  0  0  0  0  0
    1.4815  -14.4664  -97.1663 O   0  5  0  0  0  0  0  0  0  0  0  0
    2.3778  -15.6701 -100.5784 O   0  0  0  0  0  0  0  0  0  0  0  0
   -0.6585  -15.9310  -93.1473 S   0  0  0  0  0  0  0  0  0  0  0  0
    0.3971  -16.1295  -91.9215 C   0  0  0  0  0  0  0  0  0  0  0  0
    3.1442  -16.1578  -97.7156 O   0  0  0  0  0  0  0  0  0  0  0  0
    0.7115  -13.9313  -99.8836 O   0  5  0  0  0  0  0  0  0  0  0  0
    1.1105  -17.3127  -91.9556 N   0  0  0  0  0  0  0  0  0  0  0  0
    0.6892  -16.1973  -98.8181 O   0  0  0  0  0  0  0  0  0  0  0  0
    0.0397  -15.8741 -101.2919 O   0  0  0  0  0  0  0  0  0  0  0  0
    0.7244  -18.0270  -93.0629 C   0  0  1  0  0  0  0  0  0  0  0  0
   -0.2549  -17.3350  -93.7927 C   0  0  2  0  0  0  0  0  0  0  0  0
   -1.0224  -17.6003  -95.0644 C   0  0  0  0  0  0  0  0  0  0  0  0
   -0.6053  -16.6342  -96.1784 C   0  0  0  0  0  0  0  0  0  0  0  0
    0.7661  -16.8404  -96.4945 O   0  0  0  0  0  0  0  0  0  0  0  0
  1 11  1  0  0  0  0
  3 13  1  1  0  0  0
  3 17  2  0  0  0  0
  3 20  1  0  0  0  0
  3 26  1  0  0  0  0
  4 14  1  6  0  0  0
  4 18  1  0  0  0  0
  4 21  2  0  0  0  0
  4 20  1  0  0  0  0
  5 19  1  0  0  0  0
  5  7  1  0  0  0  0
  6  7  2  0  0  0  0
  6 12  1  0  0  0  0
  7  8  1  0  0  0  0
  8  9  1  0  0  0  0
  8 10  2  0  0  0  0
 10 11  1  0  0  0  0
 11 12  2  0  0  0  0
 15 23  1  0  0  0  0
 15 16  1  0  0  0  0
 16 19  1  0  0  0  0
 19 22  1  0  0  0  0
 22  2  1  6  0  0  0
 22 23  1  0  0  0  0
 23 24  1  6  0  0  0
 24 25  1  0  0  0  0
 25 26  1  0  0  0  0
M  CHG  2  13  -1  18  -1
M  END
>  <CHROM.1>
61.61189814,71.23538205,37.85123988,56.32330190,67.98779213,63.02518793,-174.51761891
51.61455213,0.92414035,-16.80159058,-94.27292864,1.57626366,0.22157555,1.80823234

>  <Name>
ligand

>  <RI>
0

>  <Rbt.Current_Directory>
/home/itssahil/PROJECTS/Mol_Feturizer/New_Systems/rnas/2CKY

>  <Rbt.Executable>
rbdock ($Id: //depot/dev/client3/rdock/2013.1/src/exe/rbdock.cxx#4 $)

>  <Rbt.Library>
libRbt.so (2013.1, Build901 2013/11/27)

>  <Rbt.Parameter_File>
/export/apps/rDock/src/rDock_2013.1_src/data/scripts/dock_solv.prm

>  <Rbt.Receptor>
prm/pocket_docking_3.prm

>  <SCORE>
-20.5236

>  <SCORE.INTER>
-13.9133

>  <SCORE.INTER.CONST>
1

>  <SCORE.INTER.POLAR>
0

>  <SCORE.INTER.ROT>
8

>  <SCORE.INTER.SOLV>
18.3318

>  <SCORE.INTER.VDW>
-24.3195

>  <SCORE.INTER.norm>
-0.535127

>  <SCORE.INTRA>
-6.61026

>  <SCORE.INTRA.DIHEDRAL>
-11.1322

>  <SCORE.INTRA.DIHEDRAL.0>
16.4846

>  <SCORE.INTRA.POLAR>
0

>  <SCORE.INTRA.POLAR.0>
0

>  <SCORE.INTRA.REPUL>
0

>  <SCORE.INTRA.REPUL.0>
0

>  <SCORE.INTRA.SOLV>
0.147485

>  <SCORE.INTRA.SOLV.lig_0>
-82.6983

>  <SCORE.INTRA.VDW>
-1.1179

>  <SCORE.INTRA.VDW.0>
-2.11466

>  <SCORE.INTRA.norm>
-0.254241

>  <SCORE.RESTR>
0

>  <SCORE.RESTR.CAVITY>
0

>  <SCORE.RESTR.norm>
0

>  <SCORE.SYSTEM>
0

>  <SCORE.SYSTEM.CONST>
0

>  <SCORE.SYSTEM.DIHEDRAL>
0

>  <SCORE.SYSTEM.SOLV>
0

>  <SCORE.SYSTEM.norm>
0

>  <SCORE.heavy>
26

>  <SCORE.norm>
-0.789368

>  <RMSD>
1.927

$$$$
ligand
 OpenBabel11021811423D
libRbt.so/2013.1/901 2013/11/27
 26 27  0  0  0  0  0  0  0  0999 V2000
   -0.1544  -19.0795  -85.7772 C   0  0  0  0  0  0  0  0  0  0  0  0
    1.4249  -19.3521  -93.4365 C   0  0  0  0  0  0  0  0  0  0  0  0
   -0.3429  -14.5704  -97.2984 P   0  0  2  0  0  0  0  0  0  0  0  0
   -0.1664  -15.1811  -99.9941 P   0  0  2  0  0  0  0  0  0  0  0  0
    2.0286  -17.6167  -90.8723 C   0  0  0  0  0  0  0  0  0  0  0  0
    0.2020  -18.4673  -89.4229 C   0  0  0  0  0  0  0  0  0  0  0  0
    1.4934  -17.9638  -89.5114 C   0  0  0  0  0  0  0  0  0  0  0  0
    2.2557  -17.8531  -88.3449 C   0  0  0  0  0  0  0  0  0  0  0  0
    3.5081  -17.3971  -88.3083 N   0  0  0  0  0  0  0  0  0  0  0  0
    1.6994  -18.2258  -87.1486 N   0  0  0  0  0  0  0  0  0  0  0  0
    0.4190  -18.6995  -87.0903 C   0  0  0  0  0  0  0  0  0  0  0  0
   -0.3398  -18.8316  -88.2089 N   0  0  0  0  0  0  0  0  0  0  0  0
   -1.2252  -13.3560  -97.0870 O   0  5  0  0  0  0  0  0  0  0  0  0
   -1.0866  -15.7502 -101.0504 O   0  0  0  0  0  0  0  0  0  0  0  0
   -0.8474  -16.1749  -93.1125 S   0  0  0  0  0  0  0  0  0  0  0  0
    0.1824  -16.2773  -91.8534 C   0  0  0  0  0  0  0  0  0  0  0  0
    1.0928  -14.0543  -97.3448 O   0  0  0  0  0  0  0  0  0  0  0  0
    1.1365  -15.9500  -99.9099 O   0  5  0  0  0  0  0  0  0  0  0  0
    1.0210  -17.3757  -91.8773 N   0  0  0  0  0  0  0  0  0  0  0  0
   -0.9078  -15.3516  -98.5933 O   0  0  0  0  0  0  0  0  0  0  0  0
    0.0933  -13.7255 -100.3252 O   0  0  0  0  0  0  0  0  0  0  0  0
    0.7517  -18.1099  -93.0059 C   0  0  1  0  0  0  0  0  0  0  0  0
   -0.2724  -17.5165  -93.7607 C   0  0  2  0  0  0  0  0  0  0  0  0
   -0.9640  -17.8431  -95.0613 C   0  0  0  0  0  0  0  0  0  0  0  0
   -0.3355  -17.0811  -96.2329 C   0  0  0  0  0  0  0  0  0  0  0  0
   -0.7839  -15.7315  -96.2145 O   0  0  0  0  0  0  0  0  0  0  0  0
  1 11  1  0  0  0  0
  3 13  1  1  0  0  0
  3 17  2  0  0  0  0
  3 20  1  0  0  0  0
  3 26  1  0  0  0  0
  4 14  1  6  0  0  0
  4 18  1  0  0  0  0
  4 21  2  0  0  0  0
  4 20  1  0  0  0  0
  5 19  1  0  0  0  0
  5  7  1  0  0  0  0
  6  7  2  0  0  0  0
  6 12  1  0  0  0  0
  7  8  1  0  0  0  0
  8  9  1  0  0  0  0
  8 10  2  0  0  0  0
 10 11  1  0  0  0  0
 11 12  2  0  0  0  0
 15 23  1  0  0  0  0
 15 16  1  0  0  0  0
 16 19  1  0  0  0  0
 19 22  1  0  0  0  0
 22  2  1  6  0  0  0
 22 23  1  0  0  0  0
 23 24  1  6  0  0  0
 24 25  1  0  0  0  0
 25 26  1  0  0  0  0
M  CHG  2  13  -1  18  -1
M  END
>  <CHROM.1>
101.25659985,68.66162384,21.73037199,-167.11491256,83.84172491,-77.31663415
179.78886447,169.69497276,0.24485517,-16.55354481,-94.15077704,1.41050410
-0.75320062,1.76061260

>  <Name>
ligand

>  <RI>
0

>  <Rbt.Current_Directory>
/home/itssahil/PROJECTS/Mol_Feturizer/New_Systems/rnas/2CKY

>  <Rbt.Executable>
rbdock ($Id: //depot/dev/client3/rdock/2013.1/src/exe/rbdock.cxx#4 $)

>  <Rbt.Library>
libRbt.so (2013.1, Build901 2013/11/27)

>  <Rbt.Parameter_File>
/export/apps/rDock/src/rDock_2013.1_src/data/scripts/dock_solv.prm

>  <Rbt.Receptor>
prm/pocket_docking_3.prm

>  <SCORE>
-19.3469

>  <SCORE.INTER>
-14.3955

>  <SCORE.INTER.CONST>
1

>  <SCORE.INTER.POLAR>
0

>  <SCORE.INTER.ROT>
8

>  <SCORE.INTER.SOLV>
17.8931

>  <SCORE.INTER.VDW>
-24.4947

>  <SCORE.INTER.norm>
-0.553674

>  <SCORE.INTRA>
-4.95137

>  <SCORE.INTRA.DIHEDRAL>
-8.53877

>  <SCORE.INTRA.DIHEDRAL.0>
16.4846

>  <SCORE.INTRA.POLAR>
0

>  <SCORE.INTRA.POLAR.0>
0

>  <SCORE.INTRA.REPUL>
0

>  <SCORE.INTRA.REPUL.0>
0

>  <SCORE.INTRA.SOLV>
1.55314

>  <SCORE.INTRA.SOLV.lig_0>
-82.6983

>  <SCORE.INTRA.VDW>
-1.45855

>  <SCORE.INTRA.VDW.0>
-2.11466

>  <SCORE.INTRA.norm>
-0.190437

>  <SCORE.RESTR>
0

>  <SCORE.RESTR.CAVITY>
0

>  <SCORE.RESTR.norm>
0

>  <SCORE.SYSTEM>
0

>  <SCORE.SYSTEM.CONST>
0

>  <SCORE.SYSTEM.DIHEDRAL>
0

>  <SCORE.SYSTEM.SOLV>
0

>  <SCORE.SYSTEM.norm>
0

>  <SCORE.heavy>
26

>  <SCORE.norm>
-0.744112

>  <RMSD>
1.945

$$$$
ligand
 OpenBabel11021811423D
libRbt.so/2013.1/901 2013/11/27
 26 27  0  0  0  0  0  0  0  0999 V2000
    0.2944  -19.0503  -86.0804 C   0  0  0  0  0  0  0  0  0  0  0  0
    1.4246  -19.1408  -93.3368 C   0  0  0  0  0  0  0  0  0  0  0  0
   -0.4501  -15.4984  -97.5164 P   0  0  2  0  0  0  0  0  0  0  0  0
    1.6280  -14.9592  -99.2661 P   0  0  2  0  0  0  0  0  0  0  0  0
    2.1033  -17.0017  -91.1198 C   0  0  0  0  0  0  0  0  0  0  0  0
    2.4404  -17.5760  -88.7288 C   0  0  0  0  0  0  0  0  0  0  0  0
    1.5900  -17.5705  -89.8269 C   0  0  0  0  0  0  0  0  0  0  0  0
    0.2829  -18.0410  -89.6702 C   0  0  0  0  0  0  0  0  0  0  0  0
   -0.6245  -18.0722  -90.6466 N   0  0  0  0  0  0  0  0  0  0  0  0
   -0.1128  -18.5108  -88.4446 N   0  0  0  0  0  0  0  0  0  0  0  0
    0.7528  -18.5217  -87.3873 C   0  0  0  0  0  0  0  0  0  0  0  0
    2.0236  -18.0575  -87.5064 N   0  0  0  0  0  0  0  0  0  0  0  0
   -1.0755  -16.0907  -98.7638 O   0  5  0  0  0  0  0  0  0  0  0  0
    0.7230  -14.8490 -100.4725 O   0  0  0  0  0  0  0  0  0  0  0  0
   -0.6718  -15.8424  -93.6344 S   0  0  0  0  0  0  0  0  0  0  0  0
    0.3411  -15.7680  -92.3599 C   0  0  0  0  0  0  0  0  0  0  0  0
   -1.5909  -14.8650  -96.7243 O   0  0  0  0  0  0  0  0  0  0  0  0
    2.0970  -16.3825  -99.0431 O   0  5  0  0  0  0  0  0  0  0  0  0
    1.1182  -16.8950  -92.1694 N   0  0  0  0  0  0  0  0  0  0  0  0
    0.7593  -14.5427  -97.9960 O   0  0  0  0  0  0  0  0  0  0  0  0
    2.8099  -14.0340  -99.4734 O   0  0  0  0  0  0  0  0  0  0  0  0
    0.8175  -17.8072  -93.1506 C   0  0  1  0  0  0  0  0  0  0  0  0
   -0.1666  -17.3081  -94.0183 C   0  0  2  0  0  0  0  0  0  0  0  0
   -0.8651  -17.8291  -95.2500 C   0  0  0  0  0  0  0  0  0  0  0  0
    0.1017  -17.9402  -96.4337 C   0  0  0  0  0  0  0  0  0  0  0  0
    0.5201  -16.6388  -96.8265 O   0  0  0  0  0  0  0  0  0  0  0  0
  1 11  1  0  0  0  0
  3 13  1  6  0  0  0
  3 17  2  0  0  0  0
  3 20  1  0  0  0  0
  3 26  1  0  0  0  0
  4 14  1  6  0  0  0
  4 18  1  0  0  0  0
  4 21  2  0  0  0  0
  4 20  1  0  0  0  0
  5 19  1  0  0  0  0
  5  7  1  0  0  0  0
  6  7  2  0  0  0  0
  6 12  1  0  0  0  0
  7  8  1  0  0  0  0
  8  9  1  0  0  0  0
  8 10  2  0  0  0  0
 10 11  1  0  0  0  0
 11 12  2  0  0  0  0
 15 23  1  0  0  0  0
 15 16  1  0  0  0  0
 16 19  1  0  0  0  0
 19 22  1  0  0  0  0
 22  2  1  6  0  0  0
 22 23  1  0  0  0  0
 23 24  1  6  0  0  0
 24 25  1  0  0  0  0
 25 26  1  0  0  0  0
M  CHG  2  13  -1  18  -1
M  END
>  <CHROM.1>
-35.47291514,90.47771048,-173.43749239,68.13125407,111.56216655,-66.69783155
-67.94476407,-55.98592904,0.55925336,-16.63691612,-94.30458612,1.56041482
0.10537938,1.84953855

>  <Name>
ligand

>  <RI>
0

>  <Rbt.Current_Directory>
/home/itssahil/PROJECTS/Mol_Feturizer/New_Systems/rnas/2CKY

>  <Rbt.Executable>
rbdock ($Id: //depot/dev/client3/rdock/2013.1/src/exe/rbdock.cxx#4 $)

>  <Rbt.Library>
libRbt.so (2013.1, Build901 2013/11/27)

>  <Rbt.Parameter_File>
/export/apps/rDock/src/rDock_2013.1_src/data/scripts/dock_solv.prm

>  <Rbt.Receptor>
prm/pocket_docking_2.prm

>  <SCORE>
-18.0078

>  <SCORE.INTER>
-13.9146

>  <SCORE.INTER.CONST>
1

>  <SCORE.INTER.POLAR>
0

>  <SCORE.INTER.ROT>
8

>  <SCORE.INTER.SOLV>
8.94666

>  <SCORE.INTER.VDW>
-21.192

>  <SCORE.INTER.norm>
-0.535177

>  <SCORE.INTRA>
-4.17099

>  <SCORE.INTRA.DIHEDRAL>
-10.3797

>  <SCORE.INTRA.DIHEDRAL.0>
16.4846

>  <SCORE.INTRA.POLAR>
0

>  <SCORE.INTRA.POLAR.0>
0

>  <SCORE.INTRA.REPUL>
0

>  <SCORE.INTRA.REPUL.0>
0

>  <SCORE.INTRA.SOLV>
6.81379

>  <SCORE.INTRA.SOLV.lig_0>
-82.6983

>  <SCORE.INTRA.VDW>
-2.38801

>  <SCORE.INTRA.VDW.0>
-2.11466

>  <SCORE.INTRA.norm>
-0.160423

>  <SCORE.RESTR>
0.0777521

>  <SCORE.RESTR.CAVITY>
0.0777521

>  <SCORE.RESTR.norm>
0.00299046

>  <SCORE.SYSTEM>
0

>  <SCORE.SYSTEM.CONST>
0

>  <SCORE.SYSTEM.DIHEDRAL>
0

>  <SCORE.SYSTEM.SOLV>
0

>  <SCORE.SYSTEM.norm>
0

>  <SCORE.heavy>
26

>  <SCORE.norm>
-0.692609

>  <RMSD>
1.966

$$$$
ligand
 OpenBabel11021811423D
libRbt.so/2013.1/901 2013/11/27
 26 27  0  0  0  0  0  0  0  0999 V2000
    0.0012  -19.1669  -85.9519 C   0  0  0  0  0  0  0  0  0  0  0  0
    1.2162  -18.7786  -93.5254 C   0  0  0  0  0  0  0  0  0  0  0  0
   -0.9460  -15.6323  -98.1305 P   0  0  2  0  0  0  0  0  0  0  0  0
    0.6542  -14.1637  -99.8489 P   0  0  2  0  0  0  0  0  0  0  0  0
    2.3550  -17.4635  -90.8938 C   0  0  0  0  0  0  0  0  0  0  0  0
    2.4747  -18.0400  -88.4827 C   0  0  0  0  0  0  0  0  0  0  0  0
    1.6966  -17.9366  -89.6284 C   0  0  0  0  0  0  0  0  0  0  0  0
    0.3308  -18.2227  -89.5443 C   0  0  0  0  0  0  0  0  0  0  0  0
   -0.5158  -18.1459  -90.5716 N   0  0  0  0  0  0  0  0  0  0  0  0
   -0.1941  -18.6148  -88.3400 N   0  0  0  0  0  0  0  0  0  0  0  0
    0.6007  -18.7263  -87.2341 C   0  0  0  0  0  0  0  0  0  0  0  0
    1.9277  -18.4410  -87.2827 N   0  0  0  0  0  0  0  0  0  0  0  0
   -2.0128  -15.9727  -99.1524 O   0  5  0  0  0  0  0  0  0  0  0  0
   -0.4910  -14.1347 -100.8360 O   0  0  0  0  0  0  0  0  0  0  0  0
    0.0424  -15.0794  -92.9763 S   0  0  0  0  0  0  0  0  0  0  0  0
    1.0035  -15.5662  -91.7534 C   0  0  0  0  0  0  0  0  0  0  0  0
   -1.4758  -14.4395  -97.3389 O   0  0  0  0  0  0  0  0  0  0  0  0
    1.9915  -14.3206 -100.5437 O   0  5  0  0  0  0  0  0  0  0  0  0
    1.4607  -16.8664  -91.8567 N   0  0  0  0  0  0  0  0  0  0  0  0
    0.4432  -15.4508  -98.9324 O   0  0  0  0  0  0  0  0  0  0  0  0
    0.6185  -12.8811  -99.0430 O   0  0  0  0  0  0  0  0  0  0  0  0
    0.9652  -17.4161  -93.0134 C   0  0  1  0  0  0  0  0  0  0  0  0
    0.1670  -16.4936  -93.7079 C   0  0  2  0  0  0  0  0  0  0  0  0
   -0.6057  -16.5161  -95.0037 C   0  0  0  0  0  0  0  0  0  0  0  0
    0.2425  -17.0805  -96.1483 C   0  0  0  0  0  0  0  0  0  0  0  0
   -0.4985  -17.0197  -97.3608 O   0  0  0  0  0  0  0  0  0  0  0  0
  1 11  1  0  0  0  0
  3 13  1  6  0  0  0
  3 17  2  0  0  0  0
  3 20  1  0  0  0  0
  3 26  1  0  0  0  0
  4 14  1  6  0  0  0
  4 18  1  0  0  0  0
  4 21  2  0  0  0  0
  4 20  1  0  0  0  0
  5 19  1  0  0  0  0
  5  7  1  0  0  0  0
  6  7  2  0  0  0  0
  6 12  1  0  0  0  0
  7  8  1  0  0  0  0
  8  9  1  0  0  0  0
  8 10  2  0  0  0  0
 10 11  1  0  0  0  0
 11 12  2  0  0  0  0
 15 23  1  0  0  0  0
 15 16  1  0  0  0  0
 16 19  1  0  0  0  0
 19 22  1  0  0  0  0
 22  2  1  6  0  0  0
 22 23  1  0  0  0  0
 23 24  1  6  0  0  0
 24 25  1  0  0  0  0
 25 26  1  0  0  0  0
M  CHG  2  13  -1  18  -1
M  END
>  <CHROM.1>
71.92922974,79.36339247,-155.83714526,-55.88340106,131.84717676,-177.03205858
66.87519687,-165.03026608,0.33524556,-16.35380738,-94.39398190,1.47362454
0.50227787,1.93526524

>  <Name>
ligand

>  <RI>
0

>  <Rbt.Current_Directory>
/home/itssahil/PROJECTS/Mol_Feturizer/New_Systems/rnas/2CKY

>  <Rbt.Executable>
rbdock ($Id: //depot/dev/client3/rdock/2013.1/src/exe/rbdock.cxx#4 $)

>  <Rbt.Library>
libRbt.so (2013.1, Build901 2013/11/27)

>  <Rbt.Parameter_File>
/export/apps/rDock/src/rDock_2013.1_src/data/scripts/dock_solv.prm

>  <Rbt.Receptor>
prm/pocket_docking_2.prm

>  <SCORE>
-19.2357

>  <SCORE.INTER>
-14.9121

>  <SCORE.INTER.CONST>
1

>  <SCORE.INTER.POLAR>
0

>  <SCORE.INTER.ROT>
8

>  <SCORE.INTER.SOLV>
10.6937

>  <SCORE.INTER.VDW>
-22.4393

>  <SCORE.INTER.norm>
-0.573542

>  <SCORE.INTRA>
-4.32363

>  <SCORE.INTRA.DIHEDRAL>
-10.6577

>  <SCORE.INTRA.DIHEDRAL.0>
16.4846

>  <SCORE.INTRA.POLAR>
0

>  <SCORE.INTRA.POLAR.0>
0

>  <SCORE.INTRA.REPUL>
0

>  <SCORE.INTRA.REPUL.0>
0

>  <SCORE.INTRA.SOLV>
4.99613

>  <SCORE.INTRA.SOLV.lig_0>
-82.6983

>  <SCORE.INTRA.VDW>
-1.49283

>  <SCORE.INTRA.VDW.0>
-2.11466

>  <SCORE.INTRA.norm>
-0.166294

>  <SCORE.RESTR>
0

>  <SCORE.RESTR.CAVITY>
0

>  <SCORE.RESTR.norm>
0

>  <SCORE.SYSTEM>
0

>  <SCORE.SYSTEM.CONST>
0

>  <SCORE.SYSTEM.DIHEDRAL>
0

>  <SCORE.SYSTEM.SOLV>
0

>  <SCORE.SYSTEM.norm>
0

>  <SCORE.heavy>
26

>  <SCORE.norm>
-0.739835

>  <RMSD>
1.973

$$$$
ligand
 OpenBabel11021811423D
libRbt.so/2013.1/901 2013/11/27
 26 27  0  0  0  0  0  0  0  0999 V2000
   -0.4678  -19.3747  -86.0969 C   0  0  0  0  0  0  0  0  0  0  0  0
    2.3231  -18.2168  -93.5963 C   0  0  0  0  0  0  0  0  0  0  0  0
   -1.0110  -15.8617  -97.9197 P   0  0  2  0  0  0  0  0  0  0  0  0
    1.4894  -15.3651  -99.0022 P   0  0  2  0  0  0  0  0  0  0  0  0
    2.5001  -17.3554  -90.5668 C   0  0  0  0  0  0  0  0  0  0  0  0
    2.2473  -17.9017  -88.1588 C   0  0  0  0  0  0  0  0  0  0  0  0
    1.6913  -17.9173  -89.4315 C   0  0  0  0  0  0  0  0  0  0  0  0
    0.3899  -18.4016  -89.5931 C   0  0  0  0  0  0  0  0  0  0  0  0
   -0.2509  -18.4532  -90.7612 N   0  0  0  0  0  0  0  0  0  0  0  0
   -0.2893  -18.8636  -88.4955 N   0  0  0  0  0  0  0  0  0  0  0  0
    0.2915  -18.8538  -87.2587 C   0  0  0  0  0  0  0  0  0  0  0  0
    1.5486  -18.3758  -87.0694 N   0  0  0  0  0  0  0  0  0  0  0  0
   -1.6176  -16.5125  -99.1471 O   0  5  0  0  0  0  0  0  0  0  0  0
    2.8927  -15.9093  -98.8561 O   0  0  0  0  0  0  0  0  0  0  0  0
    0.2063  -15.0319  -92.7367 S   0  0  0  0  0  0  0  0  0  0  0  0
    0.9595  -15.5990  -91.4073 C   0  0  0  0  0  0  0  0  0  0  0  0
   -1.4716  -14.4065  -97.9343 O   0  0  0  0  0  0  0  0  0  0  0  0
    1.4162  -13.8950  -98.6431 O   0  5  0  0  0  0  0  0  0  0  0  0
    1.7258  -16.7307  -91.6125 N   0  0  0  0  0  0  0  0  0  0  0  0
    0.5763  -16.1529  -97.9597 O   0  0  0  0  0  0  0  0  0  0  0  0
    1.0404  -15.5883 -100.4320 O   0  0  0  0  0  0  0  0  0  0  0  0
    1.6459  -17.0813  -92.9378 C   0  0  1  0  0  0  0  0  0  0  0  0
    0.8250  -16.1898  -93.6462 C   0  0  2  0  0  0  0  0  0  0  0  0
    0.3879  -16.0569  -95.0842 C   0  0  0  0  0  0  0  0  0  0  0  0
   -1.0794  -16.4624  -95.2601 C   0  0  0  0  0  0  0  0  0  0  0  0
   -1.3107  -16.8249  -96.6158 O   0  0  0  0  0  0  0  0  0  0  0  0
  1 11  1  0  0  0  0
  3 13  1  6  0  0  0
  3 17  2  0  0  0  0
  3 20  1  0  0  0  0
  3 26  1  0  0  0  0
  4 14  1  1  0  0  0
  4 18  1  0  0  0  0
  4 21  2  0  0  0  0
  4 20  1  0  0  0  0
  5 19  1  0  0  0  0
  5  7  1  0  0  0  0
  6  7  2  0  0  0  0
  6 12  1  0  0  0  0
  7  8  1  0  0  0  0
  8  9  1  0  0  0  0
  8 10  2  0  0  0  0
 10 11  1  0  0  0  0
 11 12  2  0  0  0  0
 15 23  1  0  0  0  0
 15 16  1  0  0  0  0
 16 19  1  0  0  0  0
 19 22  1  0  0  0  0
 22  2  1  6  0  0  0
 22 23  1  0  0  0  0
 23 24  1  6  0  0  0
 24 25  1  0  0  0  0
 25 26  1  0  0  0  0
M  CHG  2  13  -1  18  -1
M  END
>  <CHROM.1>
73.72933629,64.03825560,-147.58989665,-176.66276685,-73.44522354,-157.59358774
-56.17735338,-170.02142511,0.55969244,-16.59636548,-94.09807255,1.52467075
0.11256257,1.83704745

>  <Name>
ligand

>  <RI>
0

>  <Rbt.Current_Directory>
/home/itssahil/PROJECTS/Mol_Feturizer/New_Systems/rnas/2CKY

>  <Rbt.Executable>
rbdock ($Id: //depot/dev/client3/rdock/2013.1/src/exe/rbdock.cxx#4 $)

>  <Rbt.Library>
libRbt.so (2013.1, Build901 2013/11/27)

>  <Rbt.Parameter_File>
/export/apps/rDock/src/rDock_2013.1_src/data/scripts/dock_solv.prm

>  <Rbt.Receptor>
prm/pocket_docking_2.prm

>  <SCORE>
-16.7347

>  <SCORE.INTER>
-14.2029

>  <SCORE.INTER.CONST>
1

>  <SCORE.INTER.POLAR>
0

>  <SCORE.INTER.ROT>
8

>  <SCORE.INTER.SOLV>
7.38144

>  <SCORE.INTER.VDW>
-20.8624

>  <SCORE.INTER.norm>
-0.546266

>  <SCORE.INTRA>
-2.53183

>  <SCORE.INTRA.DIHEDRAL>
-8.92061

>  <SCORE.INTRA.DIHEDRAL.0>
16.4846

>  <SCORE.INTRA.POLAR>
0

>  <SCORE.INTRA.POLAR.0>
0

>  <SCORE.INTRA.REPUL>
0

>  <SCORE.INTRA.REPUL.0>
0

>  <SCORE.INTRA.SOLV>
6.34894

>  <SCORE.INTRA.SOLV.lig_0>
-82.6983

>  <SCORE.INTRA.VDW>
-1.246

>  <SCORE.INTRA.VDW.0>
-2.11466

>  <SCORE.INTRA.norm>
-0.0973782

>  <SCORE.RESTR>
0

>  <SCORE.RESTR.CAVITY>
0

>  <SCORE.RESTR.norm>
0

>  <SCORE.SYSTEM>
0

>  <SCORE.SYSTEM.CONST>
0

>  <SCORE.SYSTEM.DIHEDRAL>
0

>  <SCORE.SYSTEM.SOLV>
0

>  <SCORE.SYSTEM.norm>
0

>  <SCORE.heavy>
26

>  <SCORE.norm>
-0.643644

>  <RMSD>
1.982

$$$$
ligand
 OpenBabel11021811423D
libRbt.so/2013.1/901 2013/11/27
 26 27  0  0  0  0  0  0  0  0999 V2000
    0.2496  -19.0225  -86.1443 C   0  0  0  0  0  0  0  0  0  0  0  0
    0.0974  -15.7022  -92.9758 C   0  0  0  0  0  0  0  0  0  0  0  0
    0.0044  -15.0343  -98.1684 P   0  0  2  0  0  0  0  0  0  0  0  0
    2.5291  -13.9936  -98.6303 P   0  0  2  0  0  0  0  0  0  0  0  0
    2.2780  -17.0281  -91.1216 C   0  0  0  0  0  0  0  0  0  0  0  0
    2.5116  -17.5814  -88.7133 C   0  0  0  0  0  0  0  0  0  0  0  0
    1.7082  -17.5828  -89.8463 C   0  0  0  0  0  0  0  0  0  0  0  0
    0.3937  -18.0466  -89.7405 C   0  0  0  0  0  0  0  0  0  0  0  0
   -0.4719  -18.0833  -90.7540 N   0  0  0  0  0  0  0  0  0  0  0  0
   -0.0553  -18.5033  -88.5284 N   0  0  0  0  0  0  0  0  0  0  0  0
    0.7649  -18.5079  -87.4355 C   0  0  0  0  0  0  0  0  0  0  0  0
    2.0416  -18.0499  -87.5051 N   0  0  0  0  0  0  0  0  0  0  0  0
   -0.3044  -15.8338  -99.4188 O   0  5  0  0  0  0  0  0  0  0  0  0
    2.0836  -12.6506  -98.0969 O   0  0  0  0  0  0  0  0  0  0  0  0
    1.2322  -19.2583  -94.1713 S   0  0  0  0  0  0  0  0  0  0  0  0
    2.0344  -18.8212  -92.8217 C   0  0  0  0  0  0  0  0  0  0  0  0
   -0.6386  -13.6641  -98.3661 O   0  0  0  0  0  0  0  0  0  0  0  0
    2.3230  -14.1005 -100.1275 O   0  5  0  0  0  0  0  0  0  0  0  0
    1.7052  -17.5724  -92.3294 N   0  0  0  0  0  0  0  0  0  0  0  0
    1.6020  -15.0947  -97.9452 O   0  0  0  0  0  0  0  0  0  0  0  0
    3.9905  -14.1831  -98.2778 O   0  0  0  0  0  0  0  0  0  0  0  0
    0.7468  -17.0183  -93.1419 C   0  0  1  0  0  0  0  0  0  0  0  0
    0.4148  -17.8864  -94.1938 C   0  0  2  0  0  0  0  0  0  0  0  0
   -0.5500  -17.8363  -95.3528 C   0  0  0  0  0  0  0  0  0  0  0  0
    0.1185  -17.2697  -96.6099 C   0  0  0  0  0  0  0  0  0  0  0  0
   -0.3690  -15.9560  -96.8536 O   0  0  0  0  0  0  0  0  0  0  0  0
  1 11  1  0  0  0  0
  3 13  1  6  0  0  0
  3 17  2  0  0  0  0
  3 20  1  0  0  0  0
  3 26  1  0  0  0  0
  4 14  1  1  0  0  0
  4 18  1  0  0  0  0
  4 21  2  0  0  0  0
  4 20  1  0  0  0  0
  5 19  1  0  0  0  0
  5  7  1  0  0  0  0
  6  7  2  0  0  0  0
  6 12  1  0  0  0  0
  7  8  1  0  0  0  0
  8  9  1  0  0  0  0
  8 10  2  0  0  0  0
 10 11  1  0  0  0  0
 11 12  2  0  0  0  0
 15 23  1  0  0  0  0
 15 16  1  0  0  0  0
 16 19  1  0  0  0  0
 19 22  1  0  0  0  0
 22  2  1  1  0  0  0
 22 23  1  0  0  0  0
 23 24  1  1  0  0  0
 24 25  1  0  0  0  0
 25 26  1  0  0  0  0
M  CHG  2  13  -1  18  -1
M  END
>  <CHROM.1>
88.84302719,-77.10873592,153.22683213,59.87973897,-88.19459149,-107.25392670
-175.07783714,53.78457944,1.04280984,-16.52489262,-94.37078408,-1.61353079
-0.70471556,-1.22302899

>  <Name>
ligand

>  <RI>
0

>  <Rbt.Current_Directory>
/home/itssahil/PROJECTS/Mol_Feturizer/New_Systems/rnas/2CKY

>  <Rbt.Executable>
rbdock ($Id: //depot/dev/client3/rdock/2013.1/src/exe/rbdock.cxx#4 $)

>  <Rbt.Library>
libRbt.so (2013.1, Build901 2013/11/27)

>  <Rbt.Parameter_File>
/export/apps/rDock/src/rDock_2013.1_src/data/scripts/dock_solv.prm

>  <Rbt.Receptor>
prm/pocket_docking_2.prm

>  <SCORE>
-15.8832

>  <SCORE.INTER>
-13.603

>  <SCORE.INTER.CONST>
1

>  <SCORE.INTER.POLAR>
0

>  <SCORE.INTER.ROT>
8

>  <SCORE.INTER.SOLV>
8.92073

>  <SCORE.INTER.VDW>
-20.9756

>  <SCORE.INTER.norm>
-0.523192

>  <SCORE.INTRA>
-2.31129

>  <SCORE.INTRA.DIHEDRAL>
-5.71606

>  <SCORE.INTRA.DIHEDRAL.0>
16.4846

>  <SCORE.INTRA.POLAR>
0

>  <SCORE.INTRA.POLAR.0>
0

>  <SCORE.INTRA.REPUL>
0

>  <SCORE.INTRA.REPUL.0>
0

>  <SCORE.INTRA.SOLV>
4.43287

>  <SCORE.INTRA.SOLV.lig_0>
-82.6983

>  <SCORE.INTRA.VDW>
-1.66969

>  <SCORE.INTRA.VDW.0>
-2.11466

>  <SCORE.INTRA.norm>
-0.0888956

>  <SCORE.RESTR>
0.0310357

>  <SCORE.RESTR.CAVITY>
0.0310357

>  <SCORE.RESTR.norm>
0.00119368

>  <SCORE.SYSTEM>
0

>  <SCORE.SYSTEM.CONST>
0

>  <SCORE.SYSTEM.DIHEDRAL>
0

>  <SCORE.SYSTEM.SOLV>
0

>  <SCORE.SYSTEM.norm>
0

>  <SCORE.heavy>
26

>  <SCORE.norm>
-0.610894

>  <RMSD>
2.001

$$$$
ligand
 OpenBabel11021811423D
libRbt.so/2013.1/901 2013/11/27
 26 27  0  0  0  0  0  0  0  0999 V2000
    0.0812  -18.9675  -85.7642 C   0  0  0  0  0  0  0  0  0  0  0  0
   -0.0250  -19.1682  -93.0956 C   0  0  0  0  0  0  0  0  0  0  0  0
    0.5167  -16.0350  -97.8734 P   0  0  2  0  0  0  0  0  0  0  0  0
    1.7071  -17.6258  -99.8030 P   0  0  2  0  0  0  0  0  0  0  0  0
    1.9918  -17.8581  -91.0541 C   0  0  0  0  0  0  0  0  0  0  0  0
    0.2944  -18.7246  -89.4640 C   0  0  0  0  0  0  0  0  0  0  0  0
    1.5246  -18.1065  -89.6475 C   0  0  0  0  0  0  0  0  0  0  0  0
    2.2961  -17.7929  -88.5246 C   0  0  0  0  0  0  0  0  0  0  0  0
    3.4952  -17.2122  -88.5775 N   0  0  0  0  0  0  0  0  0  0  0  0
    1.8071  -18.0868  -87.2781 N   0  0  0  0  0  0  0  0  0  0  0  0
    0.5841  -18.6775  -87.1282 C   0  0  0  0  0  0  0  0  0  0  0  0
   -0.1807  -19.0066  -88.2012 N   0  0  0  0  0  0  0  0  0  0  0  0
   -0.5644  -15.5567  -98.8223 O   0  5  0  0  0  0  0  0  0  0  0  0
    0.7377  -17.0976 -100.8364 O   0  0  0  0  0  0  0  0  0  0  0  0
   -0.1923  -15.2532  -93.0068 S   0  0  0  0  0  0  0  0  0  0  0  0
    0.9140  -15.8066  -91.9457 C   0  0  0  0  0  0  0  0  0  0  0  0
    1.5598  -14.9221  -97.8162 O   0  0  0  0  0  0  0  0  0  0  0  0
    2.0103  -19.0950 -100.0155 O   0  5  0  0  0  0  0  0  0  0  0  0
    1.0373  -17.1824  -91.9002 N   0  0  0  0  0  0  0  0  0  0  0  0
    0.9914  -17.4907  -98.3849 O   0  0  0  0  0  0  0  0  0  0  0  0
    2.9767  -16.8023  -99.8787 O   0  0  0  0  0  0  0  0  0  0  0  0
    0.1618  -17.7323  -92.8038 C   0  0  1  0  0  0  0  0  0  0  0  0
   -0.5644  -16.7347  -93.4731 C   0  0  2  0  0  0  0  0  0  0  0  0
   -1.6217  -16.7267  -94.5494 C   0  0  0  0  0  0  0  0  0  0  0  0
   -1.1879  -15.8789  -95.7500 C   0  0  0  0  0  0  0  0  0  0  0  0
   -0.2030  -16.5839  -96.4957 O   0  0  0  0  0  0  0  0  0  0  0  0
  1 11  1  0  0  0  0
  3 13  1  6  0  0  0
  3 17  2  0  0  0  0
  3 20  1  0  0  0  0
  3 26  1  0  0  0  0
  4 14  1  6  0  0  0
  4 18  1  0  0  0  0
  4 21  2  0  0  0  0
  4 20  1  0  0  0  0
  5 19  1  0  0  0  0
  5  7  1  0  0  0  0
  6  7  2  0  0  0  0
  6 12  1  0  0  0  0
  7  8  1  0  0  0  0
  8  9  1  0  0  0  0
  8 10  2  0  0  0  0
 10 11  1  0  0  0  0
 11 12  2  0  0  0  0
 15 23  1  0  0  0  0
 15 16  1  0  0  0  0
 16 19  1  0  0  0  0
 19 22  1  0  0  0  0
 22  2  1  6  0  0  0
 22 23  1  0  0  0  0
 23 24  1  6  0  0  0
 24 25  1  0  0  0  0
 25 26  1  0  0  0  0
M  CHG  2  13  -1  18  -1
M  END
>  <CHROM.1>
64.76091116,85.38531839,51.42163566,-59.01066532,56.07908038,74.50424321
179.25227565,-49.43948520,0.76764558,-17.16431185,-94.21088071,-1.58002016
0.72510276,-1.45003372

>  <Name>
ligand

>  <RI>
0

>  <Rbt.Current_Directory>
/home/itssahil/PROJECTS/Mol_Feturizer/New_Systems/rnas/2CKY

>  <Rbt.Executable>
rbdock ($Id: //depot/dev/client3/rdock/2013.1/src/exe/rbdock.cxx#4 $)

>  <Rbt.Library>
libRbt.so (2013.1, Build901 2013/11/27)

>  <Rbt.Parameter_File>
/export/apps/rDock/src/rDock_2013.1_src/data/scripts/dock_solv.prm

>  <Rbt.Receptor>
prm/pocket_docking_5.prm

>  <SCORE>
-20.4056

>  <SCORE.INTER>
-14.84

>  <SCORE.INTER.CONST>
1

>  <SCORE.INTER.POLAR>
0

>  <SCORE.INTER.ROT>
8

>  <SCORE.INTER.SOLV>
17.5856

>  <SCORE.INTER.VDW>
-24.6885

>  <SCORE.INTER.norm>
-0.570769

>  <SCORE.INTRA>
-5.56566

>  <SCORE.INTRA.DIHEDRAL>
-10.1446

>  <SCORE.INTRA.DIHEDRAL.0>
16.4846

>  <SCORE.INTRA.POLAR>
0

>  <SCORE.INTRA.POLAR.0>
0

>  <SCORE.INTRA.REPUL>
0

>  <SCORE.INTRA.REPUL.0>
0

>  <SCORE.INTRA.SOLV>
0.105787

>  <SCORE.INTRA.SOLV.lig_0>
-82.6983

>  <SCORE.INTRA.VDW>
-0.546259

>  <SCORE.INTRA.VDW.0>
-2.11466

>  <SCORE.INTRA.norm>
-0.214064

>  <SCORE.RESTR>
0

>  <SCORE.RESTR.CAVITY>
0

>  <SCORE.RESTR.norm>
0

>  <SCORE.SYSTEM>
0

>  <SCORE.SYSTEM.CONST>
0

>  <SCORE.SYSTEM.DIHEDRAL>
0

>  <SCORE.SYSTEM.SOLV>
0

>  <SCORE.SYSTEM.norm>
0

>  <SCORE.heavy>
26

>  <SCORE.norm>
-0.784833

>  <RMSD>
2.060

$$$$
ligand
 OpenBabel11021811423D
libRbt.so/2013.1/901 2013/11/27
 26 27  0  0  0  0  0  0  0  0999 V2000
    0.0842  -19.1613  -86.0322 C   0  0  0  0  0  0  0  0  0  0  0  0
    2.6834  -17.5394  -94.1682 C   0  0  0  0  0  0  0  0  0  0  0  0
   -0.1670  -13.3757  -98.1280 P   0  0  2  0  0  0  0  0  0  0  0  0
    0.4844  -14.7894 -100.4188 P   0  0  2  0  0  0  0  0  0  0  0  0
    2.2898  -17.4504  -91.0395 C   0  0  0  0  0  0  0  0  0  0  0  0
    2.2292  -17.4850  -88.5585 C   0  0  0  0  0  0  0  0  0  0  0  0
    1.6915  -17.9462  -89.7531 C   0  0  0  0  0  0  0  0  0  0  0  0
    0.5885  -18.8040  -89.7096 C   0  0  0  0  0  0  0  0  0  0  0  0
   -0.0188  -19.2992  -90.7884 N   0  0  0  0  0  0  0  0  0  0  0  0
    0.0844  -19.1786  -88.4911 N   0  0  0  0  0  0  0  0  0  0  0  0
    0.6471  -18.7238  -87.3319 C   0  0  0  0  0  0  0  0  0  0  0  0
    1.7099  -17.8782  -87.3437 N   0  0  0  0  0  0  0  0  0  0  0  0
   -1.3408  -12.5569  -97.6281 O   0  5  0  0  0  0  0  0  0  0  0  0
   -0.0555  -14.8537 -101.8299 O   0  0  0  0  0  0  0  0  0  0  0  0
   -0.8307  -16.2040  -93.0587 S   0  0  0  0  0  0  0  0  0  0  0  0
    0.0724  -16.5967  -91.7602 C   0  0  0  0  0  0  0  0  0  0  0  0
    1.0429  -12.4454  -98.1107 O   0  0  0  0  0  0  0  0  0  0  0  0
    0.6546  -16.1700  -99.8184 O   0  5  0  0  0  0  0  0  0  0  0  0
    1.3303  -17.0876  -92.0549 N   0  0  0  0  0  0  0  0  0  0  0  0
   -0.6033  -14.0225  -99.5413 O   0  0  0  0  0  0  0  0  0  0  0  0
    1.8088  -14.0541 -100.4507 O   0  0  0  0  0  0  0  0  0  0  0  0
    1.4864  -17.1062  -93.4191 C   0  0  1  0  0  0  0  0  0  0  0  0
    0.3357  -16.6267  -94.0645 C   0  0  2  0  0  0  0  0  0  0  0  0
   -0.0654  -16.4038  -95.5018 C   0  0  0  0  0  0  0  0  0  0  0  0
    0.1691  -14.9502  -95.9264 C   0  0  0  0  0  0  0  0  0  0  0  0
   -0.1399  -14.8050  -97.3072 O   0  0  0  0  0  0  0  0  0  0  0  0
  1 11  1  0  0  0  0
  3 13  1  1  0  0  0
  3 17  2  0  0  0  0
  3 20  1  0  0  0  0
  3 26  1  0  0  0  0
  4 14  1  6  0  0  0
  4 18  1  0  0  0  0
  4 21  2  0  0  0  0
  4 20  1  0  0  0  0
  5 19  1  0  0  0  0
  5  7  1  0  0  0  0
  6  7  2  0  0  0  0
  6 12  1  0  0  0  0
  7  8  1  0  0  0  0
  8  9  1  0  0  0  0
  8 10  2  0  0  0  0
 10 11  1  0  0  0  0
 11 12  2  0  0  0  0
 15 23  1  0  0  0  0
 15 16  1  0  0  0  0
 16 19  1  0  0  0  0
 19 22  1  0  0  0  0
 22  2  1  1  0  0  0
 22 23  1  0  0  0  0
 23 24  1  1  0  0  0
 24 25  1  0  0  0  0
 25 26  1  0  0  0  0
M  CHG  2  13  -1  18  -1
M  END
>  <CHROM.1>
172.08218556,30.39491358,-136.52812875,-160.88793810,83.50543396,176.28516517
173.64963070,-68.90867311,0.49834664,-16.06719294,-94.59543209,1.47679895
-0.92841566,1.86459921

>  <Name>
ligand

>  <RI>
0

>  <Rbt.Current_Directory>
/home/itssahil/PROJECTS/Mol_Feturizer/New_Systems/rnas/2CKY

>  <Rbt.Executable>
rbdock ($Id: //depot/dev/client3/rdock/2013.1/src/exe/rbdock.cxx#4 $)

>  <Rbt.Library>
libRbt.so (2013.1, Build901 2013/11/27)

>  <Rbt.Parameter_File>
/export/apps/rDock/src/rDock_2013.1_src/data/scripts/dock_solv.prm

>  <Rbt.Receptor>
prm/pocket_docking_3.prm

>  <SCORE>
-20.6932

>  <SCORE.INTER>
-15.734

>  <SCORE.INTER.CONST>
1

>  <SCORE.INTER.POLAR>
0

>  <SCORE.INTER.ROT>
8

>  <SCORE.INTER.SOLV>
9.98551

>  <SCORE.INTER.VDW>
-22.7512

>  <SCORE.INTER.norm>
-0.605155

>  <SCORE.INTRA>
-4.95919

>  <SCORE.INTRA.DIHEDRAL>
-10.4953

>  <SCORE.INTRA.DIHEDRAL.0>
16.4846

>  <SCORE.INTRA.POLAR>
0

>  <SCORE.INTRA.POLAR.0>
0

>  <SCORE.INTRA.REPUL>
0

>  <SCORE.INTRA.REPUL.0>
0

>  <SCORE.INTRA.SOLV>
3.29453

>  <SCORE.INTRA.SOLV.lig_0>
-82.6983

>  <SCORE.INTRA.VDW>
-1.35882

>  <SCORE.INTRA.VDW.0>
-2.11466

>  <SCORE.INTRA.norm>
-0.190738

>  <SCORE.RESTR>
0

>  <SCORE.RESTR.CAVITY>
0

>  <SCORE.RESTR.norm>
0

>  <SCORE.SYSTEM>
0

>  <SCORE.SYSTEM.CONST>
0

>  <SCORE.SYSTEM.DIHEDRAL>
0

>  <SCORE.SYSTEM.SOLV>
0

>  <SCORE.SYSTEM.norm>
0

>  <SCORE.heavy>
26

>  <SCORE.norm>
-0.795893

>  <RMSD>
2.068

$$$$
ligand
 OpenBabel11021811423D
libRbt.so/2013.1/901 2013/11/27
 26 27  0  0  0  0  0  0  0  0999 V2000
    0.4370  -18.7787  -86.3977 C   0  0  0  0  0  0  0  0  0  0  0  0
    2.3635  -16.2015  -93.9442 C   0  0  0  0  0  0  0  0  0  0  0  0
    1.2676  -13.6073  -98.4227 P   0  0  2  0  0  0  0  0  0  0  0  0
    0.2128  -15.4335 -100.2179 P   0  0  2  0  0  0  0  0  0  0  0  0
    1.7282  -18.5867  -91.9799 C   0  0  0  0  0  0  0  0  0  0  0  0
    0.3509  -19.3591  -90.0650 C   0  0  0  0  0  0  0  0  0  0  0  0
    1.4153  -18.5857  -90.5099 C   0  0  0  0  0  0  0  0  0  0  0  0
    2.1799  -17.8866  -89.5714 C   0  0  0  0  0  0  0  0  0  0  0  0
    3.2301  -17.1246  -89.8782 N   0  0  0  0  0  0  0  0  0  0  0  0
    1.8443  -17.9699  -88.2448 N   0  0  0  0  0  0  0  0  0  0  0  0
    0.7791  -18.7235  -87.8390 C   0  0  0  0  0  0  0  0  0  0  0  0
    0.0275  -19.4248  -88.7266 N   0  0  0  0  0  0  0  0  0  0  0  0
    1.4070  -12.0986  -98.4722 O   0  5  0  0  0  0  0  0  0  0  0  0
    1.4644  -15.4186 -101.0663 O   0  0  0  0  0  0  0  0  0  0  0  0
   -1.4427  -17.1186  -93.7572 S   0  0  0  0  0  0  0  0  0  0  0  0
   -0.5664  -18.0969  -92.7921 C   0  0  0  0  0  0  0  0  0  0  0  0
    2.6710  -14.1741  -98.6205 O   0  0  0  0  0  0  0  0  0  0  0  0
   -1.0369  -15.5805 -101.0619 O   0  5  0  0  0  0  0  0  0  0  0  0
    0.7939  -17.8529  -92.7997 N   0  0  0  0  0  0  0  0  0  0  0  0
    0.1290  -14.0172  -99.4911 O   0  0  0  0  0  0  0  0  0  0  0  0
    0.3249  -16.5742  -99.2269 O   0  0  0  0  0  0  0  0  0  0  0  0
    1.0478  -16.8045  -93.6494 C   0  0  1  0  0  0  0  0  0  0  0  0
   -0.1386  -16.3252  -94.2267 C   0  0  2  0  0  0  0  0  0  0  0  0
   -0.4824  -15.2178  -95.1921 C   0  0  0  0  0  0  0  0  0  0  0  0
    0.4073  -15.2695  -96.4388 C   0  0  0  0  0  0  0  0  0  0  0  0
    0.3800  -14.0065  -97.0921 O   0  0  0  0  0  0  0  0  0  0  0  0
  1 11  1  0  0  0  0
  3 13  1  6  0  0  0
  3 17  2  0  0  0  0
  3 20  1  0  0  0  0
  3 26  1  0  0  0  0
  4 14  1  6  0  0  0
  4 18  1  0  0  0  0
  4 21  2  0  0  0  0
  4 20  1  0  0  0  0
  5 19  1  0  0  0  0
  5  7  1  0  0  0  0
  6  7  2  0  0  0  0
  6 12  1  0  0  0  0
  7  8  1  0  0  0  0
  8  9  1  0  0  0  0
  8 10  2  0  0  0  0
 10 11  1  0  0  0  0
 11 12  2  0  0  0  0
 15 23  1  0  0  0  0
 15 16  1  0  0  0  0
 16 19  1  0  0  0  0
 19 22  1  0  0  0  0
 22  2  1  1  0  0  0
 22 23  1  0  0  0  0
 23 24  1  1  0  0  0
 24 25  1  0  0  0  0
 25 26  1  0  0  0  0
M  CHG  2  13  -1  18  -1
M  END
>  <CHROM.1>
149.78467229,-54.77744005,73.30670950,-64.62334629,-130.52427364,-160.69361795
176.27849397,-157.13302657,0.70237885,-16.29835649,-94.86154270,-1.53049286
-0.68658235,-1.18504596

>  <Name>
ligand

>  <RI>
0

>  <Rbt.Current_Directory>
/home/itssahil/PROJECTS/Mol_Feturizer/New_Systems/rnas/2CKY

>  <Rbt.Executable>
rbdock ($Id: //depot/dev/client3/rdock/2013.1/src/exe/rbdock.cxx#4 $)

>  <Rbt.Library>
libRbt.so (2013.1, Build901 2013/11/27)

>  <Rbt.Parameter_File>
/export/apps/rDock/src/rDock_2013.1_src/data/scripts/dock_solv.prm

>  <Rbt.Receptor>
prm/pocket_docking_2.prm

>  <SCORE>
-12.238

>  <SCORE.INTER>
-8.68829

>  <SCORE.INTER.CONST>
1

>  <SCORE.INTER.POLAR>
0

>  <SCORE.INTER.ROT>
8

>  <SCORE.INTER.SOLV>
10.6595

>  <SCORE.INTER.VDW>
-18.2787

>  <SCORE.INTER.norm>
-0.334165

>  <SCORE.INTRA>
-4.92874

>  <SCORE.INTRA.DIHEDRAL>
-7.99418

>  <SCORE.INTRA.DIHEDRAL.0>
16.4846

>  <SCORE.INTRA.POLAR>
0

>  <SCORE.INTRA.POLAR.0>
0

>  <SCORE.INTRA.REPUL>
0

>  <SCORE.INTRA.REPUL.0>
0

>  <SCORE.INTRA.SOLV>
1.04348

>  <SCORE.INTRA.SOLV.lig_0>
-82.6983

>  <SCORE.INTRA.VDW>
-1.45339

>  <SCORE.INTRA.VDW.0>
-2.11466

>  <SCORE.INTRA.norm>
-0.189567

>  <SCORE.RESTR>
1.37903

>  <SCORE.RESTR.CAVITY>
1.37903

>  <SCORE.RESTR.norm>
0.0530397

>  <SCORE.SYSTEM>
0

>  <SCORE.SYSTEM.CONST>
0

>  <SCORE.SYSTEM.DIHEDRAL>
0

>  <SCORE.SYSTEM.SOLV>
0

>  <SCORE.SYSTEM.norm>
0

>  <SCORE.heavy>
26

>  <SCORE.norm>
-0.470692

>  <RMSD>
2.087

$$$$
ligand
 OpenBabel11021811423D
libRbt.so/2013.1/901 2013/11/27
 26 27  0  0  0  0  0  0  0  0999 V2000
    0.0174  -19.1755  -86.0083 C   0  0  0  0  0  0  0  0  0  0  0  0
    1.2944  -18.5638  -93.5906 C   0  0  0  0  0  0  0  0  0  0  0  0
   -0.2649  -16.1709  -98.6779 P   0  0  2  0  0  0  0  0  0  0  0  0
    0.2571  -13.4571  -98.8604 P   0  0  2  0  0  0  0  0  0  0  0  0
    2.3904  -17.3450  -90.8954 C   0  0  0  0  0  0  0  0  0  0  0  0
    2.3522  -17.5959  -88.4264 C   0  0  0  0  0  0  0  0  0  0  0  0
    1.7414  -17.8662  -89.6441 C   0  0  0  0  0  0  0  0  0  0  0  0
    0.5278  -18.5602  -89.6507 C   0  0  0  0  0  0  0  0  0  0  0  0
   -0.1554  -18.8648  -90.7544 N   0  0  0  0  0  0  0  0  0  0  0  0
   -0.0114  -18.9691  -88.4584 N   0  0  0  0  0  0  0  0  0  0  0  0
    0.6229  -18.7054  -87.2772 C   0  0  0  0  0  0  0  0  0  0  0  0
    1.7952  -18.0207  -87.2392 N   0  0  0  0  0  0  0  0  0  0  0  0
    1.0491  -16.6656  -99.2493 O   0  5  0  0  0  0  0  0  0  0  0  0
    0.9799  -12.4471  -97.9979 O   0  0  0  0  0  0  0  0  0  0  0  0
    0.0321  -14.9219  -92.8792 S   0  0  0  0  0  0  0  0  0  0  0  0
    0.9989  -15.4420  -91.6746 C   0  0  0  0  0  0  0  0  0  0  0  0
   -1.2689  -16.1968  -99.8274 O   0  0  0  0  0  0  0  0  0  0  0  0
   -1.1089  -12.9582  -99.2856 O   0  5  0  0  0  0  0  0  0  0  0  0
    1.4867  -16.7251  -91.8348 N   0  0  0  0  0  0  0  0  0  0  0  0
    0.0286  -14.7541  -97.9621 O   0  0  0  0  0  0  0  0  0  0  0  0
    1.1192  -13.7502 -100.0715 O   0  0  0  0  0  0  0  0  0  0  0  0
    1.0093  -17.2324  -93.0181 C   0  0  1  0  0  0  0  0  0  0  0  0
    0.1929  -16.2977  -93.6741 C   0  0  2  0  0  0  0  0  0  0  0  0
   -0.5733  -16.2785  -94.9738 C   0  0  0  0  0  0  0  0  0  0  0  0
    0.2323  -16.9266  -96.1048 C   0  0  0  0  0  0  0  0  0  0  0  0
   -0.5675  -16.9894  -97.2793 O   0  0  0  0  0  0  0  0  0  0  0  0
  1 11  1  0  0  0  0
  3 13  1  6  0  0  0
  3 17  2  0  0  0  0
  3 20  1  0  0  0  0
  3 26  1  0  0  0  0
  4 14  1  1  0  0  0
  4 18  1  0  0  0  0
  4 21  2  0  0  0  0
  4 20  1  0  0  0  0
  5 19  1  0  0  0  0
  5  7  1  0  0  0  0
  6  7  2  0  0  0  0
  6 12  1  0  0  0  0
  7  8  1  0  0  0  0
  8  9  1  0  0  0  0
  8 10  2  0  0  0  0
 10 11  1  0  0  0  0
 11 12  2  0  0  0  0
 15 23  1  0  0  0  0
 15 16  1  0  0  0  0
 16 19  1  0  0  0  0
 19 22  1  0  0  0  0
 22  2  1  6  0  0  0
 22 23  1  0  0  0  0
 23 24  1  6  0  0  0
 24 25  1  0  0  0  0
 25 26  1  0  0  0  0
M  CHG  2  13  -1  18  -1
M  END
>  <CHROM.1>
74.94800306,78.19211863,-134.82677095,-159.99375563,138.72509346,175.11145721
114.61740572,63.66596561,0.44474397,-16.28424396,-94.30507526,1.18859909
1.33914376,2.27791686

>  <Name>
ligand

>  <RI>
0

>  <Rbt.Current_Directory>
/home/itssahil/PROJECTS/Mol_Feturizer/New_Systems/rnas/2CKY

>  <Rbt.Executable>
rbdock ($Id: //depot/dev/client3/rdock/2013.1/src/exe/rbdock.cxx#4 $)

>  <Rbt.Library>
libRbt.so (2013.1, Build901 2013/11/27)

>  <Rbt.Parameter_File>
/export/apps/rDock/src/rDock_2013.1_src/data/scripts/dock_solv.prm

>  <Rbt.Receptor>
prm/pocket_docking_2.prm

>  <SCORE>
-13.3693

>  <SCORE.INTER>
-13.2374

>  <SCORE.INTER.CONST>
1

>  <SCORE.INTER.POLAR>
0

>  <SCORE.INTER.ROT>
8

>  <SCORE.INTER.SOLV>
10.1596

>  <SCORE.INTER.VDW>
-21.1448

>  <SCORE.INTER.norm>
-0.509131

>  <SCORE.INTRA>
-0.131883

>  <SCORE.INTRA.DIHEDRAL>
-3.51194

>  <SCORE.INTRA.DIHEDRAL.0>
16.4846

>  <SCORE.INTRA.POLAR>
0

>  <SCORE.INTRA.POLAR.0>
0

>  <SCORE.INTRA.REPUL>
0

>  <SCORE.INTRA.REPUL.0>
0

>  <SCORE.INTRA.SOLV>
5.31545

>  <SCORE.INTRA.SOLV.lig_0>
-82.6983

>  <SCORE.INTRA.VDW>
-1.03364

>  <SCORE.INTRA.VDW.0>
-2.11466

>  <SCORE.INTRA.norm>
-0.00507242

>  <SCORE.RESTR>
0

>  <SCORE.RESTR.CAVITY>
0

>  <SCORE.RESTR.norm>
0

>  <SCORE.SYSTEM>
0

>  <SCORE.SYSTEM.CONST>
0

>  <SCORE.SYSTEM.DIHEDRAL>
0

>  <SCORE.SYSTEM.SOLV>
0

>  <SCORE.SYSTEM.norm>
0

>  <SCORE.heavy>
26

>  <SCORE.norm>
-0.514203

>  <RMSD>
2.096

$$$$
ligand
 OpenBabel11021811423D
libRbt.so/2013.1/901 2013/11/27
 26 27  0  0  0  0  0  0  0  0999 V2000
    0.2582  -19.0528  -86.5016 C   0  0  0  0  0  0  0  0  0  0  0  0
    0.4368  -15.4908  -92.8147 C   0  0  0  0  0  0  0  0  0  0  0  0
    0.9894  -14.4389  -97.9692 P   0  0  2  0  0  0  0  0  0  0  0  0
    2.6327  -14.5412 -100.1962 P   0  0  2  0  0  0  0  0  0  0  0  0
    2.6714  -17.1654  -91.3471 C   0  0  0  0  0  0  0  0  0  0  0  0
    2.5936  -17.4133  -88.8788 C   0  0  0  0  0  0  0  0  0  0  0  0
    2.0135  -17.7024  -90.1071 C   0  0  0  0  0  0  0  0  0  0  0  0
    0.8199  -18.4296  -90.1350 C   0  0  0  0  0  0  0  0  0  0  0  0
    0.1662  -18.7547  -91.2507 N   0  0  0  0  0  0  0  0  0  0  0  0
    0.2698  -18.8513  -88.9522 N   0  0  0  0  0  0  0  0  0  0  0  0
    0.8742  -18.5683  -87.7598 C   0  0  0  0  0  0  0  0  0  0  0  0
    2.0263  -17.8514  -87.7013 N   0  0  0  0  0  0  0  0  0  0  0  0
   -0.2942  -13.8220  -98.4886 O   0  5  0  0  0  0  0  0  0  0  0  0
    1.8686  -13.3809 -100.7934 O   0  0  0  0  0  0  0  0  0  0  0  0
    1.3335  -18.8499  -94.6245 S   0  0  0  0  0  0  0  0  0  0  0  0
    2.2395  -18.6585  -93.2834 C   0  0  0  0  0  0  0  0  0  0  0  0
    1.8028  -13.2949  -97.3697 O   0  0  0  0  0  0  0  0  0  0  0  0
    3.0318  -15.5537 -101.2503 O   0  5  0  0  0  0  0  0  0  0  0  0
    1.9984  -17.4927  -92.5814 N   0  0  0  0  0  0  0  0  0  0  0  0
    1.6433  -15.2758  -99.1849 O   0  0  0  0  0  0  0  0  0  0  0  0
    3.8572  -13.9914  -99.4934 O   0  0  0  0  0  0  0  0  0  0  0  0
    1.0152  -16.7854  -93.2284 C   0  0  1  0  0  0  0  0  0  0  0  0
    0.5780  -17.4648  -94.3762 C   0  0  2  0  0  0  0  0  0  0  0  0
   -0.4562  -17.2000  -95.4424 C   0  0  0  0  0  0  0  0  0  0  0  0
   -0.3347  -15.7757  -95.9946 C   0  0  0  0  0  0  0  0  0  0  0  0
    0.6041  -15.7610  -97.0629 O   0  0  0  0  0  0  0  0  0  0  0  0
  1 11  1  0  0  0  0
  3 13  1  6  0  0  0
  3 17  2  0  0  0  0
  3 20  1  0  0  0  0
  3 26  1  0  0  0  0
  4 14  1  6  0  0  0
  4 18  1  0  0  0  0
  4 21  2  0  0  0  0
  4 20  1  0  0  0  0
  5 19  1  0  0  0  0
  5  7  1  0  0  0  0
  6  7  2  0  0  0  0
  6 12  1  0  0  0  0
  7  8  1  0  0  0  0
  8  9  1  0  0  0  0
  8 10  2  0  0  0  0
 10 11  1  0  0  0  0
 11 12  2  0  0  0  0
 15 23  1  0  0  0  0
 15 16  1  0  0  0  0
 16 19  1  0  0  0  0
 19 22  1  0  0  0  0
 22  2  1  1  0  0  0
 22 23  1  0  0  0  0
 23 24  1  1  0  0  0
 24 25  1  0  0  0  0
 25 26  1  0  0  0  0
M  CHG  2  13  -1  18  -1
M  END
>  <CHROM.1>
88.31642813,-87.38307061,-179.15596379,-57.55352179,-131.93752751,87.34052829
177.65558652,-51.79827274,1.37756123,-16.41398421,-94.77775153,-2.45225393
-1.47908906,-2.08822552

>  <Name>
ligand

>  <RI>
0

>  <Rbt.Current_Directory>
/home/itssahil/PROJECTS/Mol_Feturizer/New_Systems/rnas/2CKY

>  <Rbt.Executable>
rbdock ($Id: //depot/dev/client3/rdock/2013.1/src/exe/rbdock.cxx#4 $)

>  <Rbt.Library>
libRbt.so (2013.1, Build901 2013/11/27)

>  <Rbt.Parameter_File>
/export/apps/rDock/src/rDock_2013.1_src/data/scripts/dock_solv.prm

>  <Rbt.Receptor>
prm/pocket_docking_2.prm

>  <SCORE>
-16.0906

>  <SCORE.INTER>
-13.1944

>  <SCORE.INTER.CONST>
1

>  <SCORE.INTER.POLAR>
0

>  <SCORE.INTER.ROT>
8

>  <SCORE.INTER.SOLV>
11.5444

>  <SCORE.INTER.VDW>
-21.5777

>  <SCORE.INTER.norm>
-0.507475

>  <SCORE.INTRA>
-3.25459

>  <SCORE.INTRA.DIHEDRAL>
-8.36909

>  <SCORE.INTRA.DIHEDRAL.0>
16.4846

>  <SCORE.INTRA.POLAR>
0

>  <SCORE.INTRA.POLAR.0>
0

>  <SCORE.INTRA.REPUL>
0

>  <SCORE.INTRA.REPUL.0>
0

>  <SCORE.INTRA.SOLV>
4.71111

>  <SCORE.INTRA.SOLV.lig_0>
-82.6983

>  <SCORE.INTRA.VDW>
-1.4256

>  <SCORE.INTRA.VDW.0>
-2.11466

>  <SCORE.INTRA.norm>
-0.125177

>  <SCORE.RESTR>
0.358316

>  <SCORE.RESTR.CAVITY>
0.358316

>  <SCORE.RESTR.norm>
0.0137814

>  <SCORE.SYSTEM>
0

>  <SCORE.SYSTEM.CONST>
0

>  <SCORE.SYSTEM.DIHEDRAL>
0

>  <SCORE.SYSTEM.SOLV>
0

>  <SCORE.SYSTEM.norm>
0

>  <SCORE.heavy>
26

>  <SCORE.norm>
-0.61887

>  <RMSD>
2.098

$$$$
ligand
 OpenBabel11021811423D
libRbt.so/2013.1/901 2013/11/27
 26 27  0  0  0  0  0  0  0  0999 V2000
   -0.1239  -19.1295  -85.8676 C   0  0  0  0  0  0  0  0  0  0  0  0
    2.5665  -17.7065  -94.0706 C   0  0  0  0  0  0  0  0  0  0  0  0
    0.8280  -16.5490  -98.4220 P   0  0  2  0  0  0  0  0  0  0  0  0
   -0.4223  -15.0191 -100.3628 P   0  0  2  0  0  0  0  0  0  0  0  0
    2.1691  -17.7657  -90.9417 C   0  0  0  0  0  0  0  0  0  0  0  0
    0.4494  -18.8622  -89.5272 C   0  0  0  0  0  0  0  0  0  0  0  0
    1.5930  -18.0764  -89.5888 C   0  0  0  0  0  0  0  0  0  0  0  0
    2.1876  -17.6559  -88.3956 C   0  0  0  0  0  0  0  0  0  0  0  0
    3.2918  -16.9114  -88.3301 N   0  0  0  0  0  0  0  0  0  0  0  0
    1.6136  -18.0148  -87.2035 N   0  0  0  0  0  0  0  0  0  0  0  0
    0.4769  -18.7725  -87.1749 C   0  0  0  0  0  0  0  0  0  0  0  0
   -0.1143  -19.2075  -88.3177 N   0  0  0  0  0  0  0  0  0  0  0  0
    2.2417  -16.9805  -98.0856 O   0  5  0  0  0  0  0  0  0  0  0  0
   -0.0393  -14.4195 -101.6972 O   0  0  0  0  0  0  0  0  0  0  0  0
   -0.9868  -16.5272  -92.9102 S   0  0  0  0  0  0  0  0  0  0  0  0
   -0.0727  -16.9487  -91.6284 C   0  0  0  0  0  0  0  0  0  0  0  0
    0.0116  -17.8306  -98.5663 O   0  0  0  0  0  0  0  0  0  0  0  0
   -1.0003  -13.9795  -99.4243 O   0  5  0  0  0  0  0  0  0  0  0  0
    1.1995  -17.3881  -91.9421 N   0  0  0  0  0  0  0  0  0  0  0  0
    0.9200  -15.5634  -99.6972 O   0  0  0  0  0  0  0  0  0  0  0  0
   -1.4232  -16.1292 -100.6113 O   0  0  0  0  0  0  0  0  0  0  0  0
    1.3566  -17.3426  -93.3054 C   0  0  1  0  0  0  0  0  0  0  0  0
    0.1923  -16.8704  -93.9313 C   0  0  2  0  0  0  0  0  0  0  0  0
   -0.2148  -16.5974  -95.3583 C   0  0  0  0  0  0  0  0  0  0  0  0
    0.5773  -15.4261  -95.9491 C   0  0  0  0  0  0  0  0  0  0  0  0
    0.3717  -15.3776  -97.3556 O   0  0  0  0  0  0  0  0  0  0  0  0
  1 11  1  0  0  0  0
  3 13  1  1  0  0  0
  3 17  2  0  0  0  0
  3 20  1  0  0  0  0
  3 26  1  0  0  0  0
  4 14  1  6  0  0  0
  4 18  1  0  0  0  0
  4 21  2  0  0  0  0
  4 20  1  0  0  0  0
  5 19  1  0  0  0  0
  5  7  1  0  0  0  0
  6  7  2  0  0  0  0
  6 12  1  0  0  0  0
  7  8  1  0  0  0  0
  8  9  1  0  0  0  0
  8 10  2  0  0  0  0
 10 11  1  0  0  0  0
 11 12  2  0  0  0  0
 15 23  1  0  0  0  0
 15 16  1  0  0  0  0
 16 19  1  0  0  0  0
 19 22  1  0  0  0  0
 22  2  1  1  0  0  0
 22 23  1  0  0  0  0
 23 24  1  1  0  0  0
 24 25  1  0  0  0  0
 25 26  1  0  0  0  0
M  CHG  2  13  -1  18  -1
M  END
>  <CHROM.1>
175.59501053,18.86966554,44.22010875,-166.55690432,112.42453899,168.05828295
-63.67542109,-45.22844655,0.54668615,-16.78815300,-94.48704145,1.47810368
-0.14372277,1.79011499

>  <Name>
ligand

>  <RI>
0

>  <Rbt.Current_Directory>
/home/itssahil/PROJECTS/Mol_Feturizer/New_Systems/rnas/2CKY

>  <Rbt.Executable>
rbdock ($Id: //depot/dev/client3/rdock/2013.1/src/exe/rbdock.cxx#4 $)

>  <Rbt.Library>
libRbt.so (2013.1, Build901 2013/11/27)

>  <Rbt.Parameter_File>
/export/apps/rDock/src/rDock_2013.1_src/data/scripts/dock_solv.prm

>  <Rbt.Receptor>
prm/pocket_docking_3.prm

>  <SCORE>
-19.5079

>  <SCORE.INTER>
-14.4533

>  <SCORE.INTER.CONST>
1

>  <SCORE.INTER.POLAR>
0

>  <SCORE.INTER.ROT>
8

>  <SCORE.INTER.SOLV>
19.5626

>  <SCORE.INTER.VDW>
-25.0897

>  <SCORE.INTER.norm>
-0.555895

>  <SCORE.INTRA>
-5.05459

>  <SCORE.INTRA.DIHEDRAL>
-10.5466

>  <SCORE.INTRA.DIHEDRAL.0>
16.4846

>  <SCORE.INTRA.POLAR>
0

>  <SCORE.INTRA.POLAR.0>
0

>  <SCORE.INTRA.REPUL>
0

>  <SCORE.INTRA.REPUL.0>
0

>  <SCORE.INTRA.SOLV>
2.42798

>  <SCORE.INTRA.SOLV.lig_0>
-82.6983

>  <SCORE.INTRA.VDW>
-0.995276

>  <SCORE.INTRA.VDW.0>
-2.11466

>  <SCORE.INTRA.norm>
-0.194407

>  <SCORE.RESTR>
0

>  <SCORE.RESTR.CAVITY>
0

>  <SCORE.RESTR.norm>
0

>  <SCORE.SYSTEM>
0

>  <SCORE.SYSTEM.CONST>
0

>  <SCORE.SYSTEM.DIHEDRAL>
0

>  <SCORE.SYSTEM.SOLV>
0

>  <SCORE.SYSTEM.norm>
0

>  <SCORE.heavy>
26

>  <SCORE.norm>
-0.750303

>  <RMSD>
2.127

$$$$
ligand
 OpenBabel11021811423D
libRbt.so/2013.1/901 2013/11/27
 26 27  0  0  0  0  0  0  0  0999 V2000
    0.0508  -19.4050  -86.3032 C   0  0  0  0  0  0  0  0  0  0  0  0
    0.2064  -15.4553  -93.0455 C   0  0  0  0  0  0  0  0  0  0  0  0
   -0.1429  -16.0566  -99.0539 P   0  0  2  0  0  0  0  0  0  0  0  0
    0.0477  -13.2985  -99.2177 P   0  0  2  0  0  0  0  0  0  0  0  0
    2.1530  -16.7777  -90.9446 C   0  0  0  0  0  0  0  0  0  0  0  0
    0.3534  -17.9618  -89.7118 C   0  0  0  0  0  0  0  0  0  0  0  0
    1.6390  -17.4364  -89.6954 C   0  0  0  0  0  0  0  0  0  0  0  0
    2.4158  -17.5898  -88.5433 C   0  0  0  0  0  0  0  0  0  0  0  0
    3.6645  -17.1402  -88.4159 N   0  0  0  0  0  0  0  0  0  0  0  0
    1.8788  -18.2357  -87.4598 N   0  0  0  0  0  0  0  0  0  0  0  0
    0.6035  -18.7248  -87.4988 C   0  0  0  0  0  0  0  0  0  0  0  0
   -0.1690  -18.6033  -88.6093 N   0  0  0  0  0  0  0  0  0  0  0  0
    1.1482  -16.6242  -99.6097 O   0  5  0  0  0  0  0  0  0  0  0  0
    0.5093  -13.6079 -100.6240 O   0  0  0  0  0  0  0  0  0  0  0  0
    1.2974  -19.1011  -93.9841 S   0  0  0  0  0  0  0  0  0  0  0  0
    1.9911  -18.6345  -92.5850 C   0  0  0  0  0  0  0  0  0  0  0  0
   -1.1448  -16.0633 -100.2055 O   0  0  0  0  0  0  0  0  0  0  0  0
    0.9125  -12.2413  -98.5618 O   0  5  0  0  0  0  0  0  0  0  0  0
    1.6703  -17.3536  -92.1770 N   0  0  0  0  0  0  0  0  0  0  0  0
    0.2139  -14.6384  -98.3703 O   0  0  0  0  0  0  0  0  0  0  0  0
   -1.3960  -12.8429  -99.2816 O   0  0  0  0  0  0  0  0  0  0  0  0
    0.8134  -16.8009  -93.0967 C   0  0  1  0  0  0  0  0  0  0  0  0
    0.5428  -17.7020  -94.1384 C   0  0  2  0  0  0  0  0  0  0  0  0
   -0.3098  -17.6677  -95.3827 C   0  0  0  0  0  0  0  0  0  0  0  0
    0.3667  -16.8654  -96.4994 C   0  0  0  0  0  0  0  0  0  0  0  0
   -0.4854  -16.8276  -97.6376 O   0  0  0  0  0  0  0  0  0  0  0  0
  1 11  1  0  0  0  0
  3 13  1  6  0  0  0
  3 17  2  0  0  0  0
  3 20  1  0  0  0  0
  3 26  1  0  0  0  0
  4 14  1  6  0  0  0
  4 18  1  0  0  0  0
  4 21  2  0  0  0  0
  4 20  1  0  0  0  0
  5 19  1  0  0  0  0
  5  7  1  0  0  0  0
  6  7  2  0  0  0  0
  6 12  1  0  0  0  0
  7  8  1  0  0  0  0
  8  9  1  0  0  0  0
  8 10  2  0  0  0  0
 10 11  1  0  0  0  0
 11 12  2  0  0  0  0
 15 23  1  0  0  0  0
 15 16  1  0  0  0  0
 16 19  1  0  0  0  0
 19 22  1  0  0  0  0
 22  2  1  1  0  0  0
 22 23  1  0  0  0  0
 23 24  1  1  0  0  0
 24 25  1  0  0  0  0
 25 26  1  0  0  0  0
M  CHG  2  13  -1  18  -1
M  END
>  <CHROM.1>
94.37982882,-65.94202605,-33.18690690,-38.94934084,-102.47155846,-178.39524140
179.49269307,58.16288935,0.64242555,-16.52006910,-94.56405665,0.85483027
1.37838523,2.61394600

>  <Name>
ligand

>  <RI>
0

>  <Rbt.Current_Directory>
/home/itssahil/PROJECTS/Mol_Feturizer/New_Systems/rnas/2CKY

>  <Rbt.Executable>
rbdock ($Id: //depot/dev/client3/rdock/2013.1/src/exe/rbdock.cxx#4 $)

>  <Rbt.Library>
libRbt.so (2013.1, Build901 2013/11/27)

>  <Rbt.Parameter_File>
/export/apps/rDock/src/rDock_2013.1_src/data/scripts/dock_solv.prm

>  <Rbt.Receptor>
prm/pocket_docking_2.prm

>  <SCORE>
-18.4537

>  <SCORE.INTER>
-12.3875

>  <SCORE.INTER.CONST>
1

>  <SCORE.INTER.POLAR>
0

>  <SCORE.INTER.ROT>
8

>  <SCORE.INTER.SOLV>
18.8326

>  <SCORE.INTER.VDW>
-23.4692

>  <SCORE.INTER.norm>
-0.476444

>  <SCORE.INTRA>
-6.15915

>  <SCORE.INTRA.DIHEDRAL>
-9.73068

>  <SCORE.INTRA.DIHEDRAL.0>
16.4846

>  <SCORE.INTRA.POLAR>
0

>  <SCORE.INTRA.POLAR.0>
0

>  <SCORE.INTRA.REPUL>
0

>  <SCORE.INTRA.REPUL.0>
0

>  <SCORE.INTRA.SOLV>
-0.650286

>  <SCORE.INTRA.SOLV.lig_0>
-82.6983

>  <SCORE.INTRA.VDW>
-0.968671

>  <SCORE.INTRA.VDW.0>
-2.11466

>  <SCORE.INTRA.norm>
-0.23689

>  <SCORE.RESTR>
0.0929829

>  <SCORE.RESTR.CAVITY>
0.0929829

>  <SCORE.RESTR.norm>
0.00357626

>  <SCORE.SYSTEM>
0

>  <SCORE.SYSTEM.CONST>
0

>  <SCORE.SYSTEM.DIHEDRAL>
0

>  <SCORE.SYSTEM.SOLV>
0

>  <SCORE.SYSTEM.norm>
0

>  <SCORE.heavy>
26

>  <SCORE.norm>
-0.709758

>  <RMSD>
2.128

$$$$
ligand
 OpenBabel11021811423D
libRbt.so/2013.1/901 2013/11/27
 26 27  0  0  0  0  0  0  0  0999 V2000
    0.0384  -19.0287  -86.3863 C   0  0  0  0  0  0  0  0  0  0  0  0
    0.5024  -15.6803  -92.1519 C   0  0  0  0  0  0  0  0  0  0  0  0
   -0.6103  -15.6516  -97.9427 P   0  0  2  0  0  0  0  0  0  0  0  0
    0.1030  -13.2605  -99.1445 P   0  0  2  0  0  0  0  0  0  0  0  0
    2.8536  -17.5295  -91.1500 C   0  0  0  0  0  0  0  0  0  0  0  0
    0.9210  -18.5340  -89.9598 C   0  0  0  0  0  0  0  0  0  0  0  0
    2.1436  -17.8809  -89.8728 C   0  0  0  0  0  0  0  0  0  0  0  0
    2.6850  -17.6281  -88.6089 C   0  0  0  0  0  0  0  0  0  0  0  0
    3.8542  -17.0216  -88.4020 N   0  0  0  0  0  0  0  0  0  0  0  0
    1.9845  -18.0145  -87.4956 N   0  0  0  0  0  0  0  0  0  0  0  0
    0.7743  -18.6380  -87.6125 C   0  0  0  0  0  0  0  0  0  0  0  0
    0.2308  -18.9095  -88.8272 N   0  0  0  0  0  0  0  0  0  0  0  0
    0.2795  -16.8700  -97.7959 O   0  5  0  0  0  0  0  0  0  0  0  0
   -1.3625  -12.8938  -99.0789 O   0  0  0  0  0  0  0  0  0  0  0  0
    1.1940  -18.7539  -94.4839 S   0  0  0  0  0  0  0  0  0  0  0  0
    2.2260  -18.7442  -93.2225 C   0  0  0  0  0  0  0  0  0  0  0  0
   -1.5262  -15.9304  -99.1315 O   0  0  0  0  0  0  0  0  0  0  0  0
    0.4670  -13.8866 -100.4753 O   0  5  0  0  0  0  0  0  0  0  0  0
    2.0627  -17.6873  -92.3471 N   0  0  0  0  0  0  0  0  0  0  0  0
    0.3560  -14.3607  -98.0190 O   0  0  0  0  0  0  0  0  0  0  0  0
    0.9173  -12.0055  -98.9045 O   0  0  0  0  0  0  0  0  0  0  0  0
    1.0279  -16.9027  -92.7932 C   0  0  1  0  0  0  0  0  0  0  0  0
    0.4771  -17.4201  -93.9762 C   0  0  2  0  0  0  0  0  0  0  0  0
   -0.6524  -17.0164  -94.8915 C   0  0  0  0  0  0  0  0  0  0  0  0
   -0.5967  -15.5202  -95.2184 C   0  0  0  0  0  0  0  0  0  0  0  0
   -1.2406  -15.2840  -96.4644 O   0  0  0  0  0  0  0  0  0  0  0  0
  1 11  1  0  0  0  0
  3 13  1  1  0  0  0
  3 17  2  0  0  0  0
  3 20  1  0  0  0  0
  3 26  1  0  0  0  0
  4 14  1  6  0  0  0
  4 18  1  0  0  0  0
  4 21  2  0  0  0  0
  4 20  1  0  0  0  0
  5 19  1  0  0  0  0
  5  7  1  0  0  0  0
  6  7  2  0  0  0  0
  6 12  1  0  0  0  0
  7  8  1  0  0  0  0
  8  9  1  0  0  0  0
  8 10  2  0  0  0  0
 10 11  1  0  0  0  0
 11 12  2  0  0  0  0
 15 23  1  0  0  0  0
 15 16  1  0  0  0  0
 16 19  1  0  0  0  0
 19 22  1  0  0  0  0
 22  2  1  1  0  0  0
 22 23  1  0  0  0  0
 23 24  1  1  0  0  0
 24 25  1  0  0  0  0
 25 26  1  0  0  0  0
M  CHG  2  13  -1  18  -1
M  END
>  <CHROM.1>
133.31831499,-104.18086518,11.21711204,50.47366639,-133.62726298,154.63938270
-74.66733011,30.78524357,0.61332068,-16.38753856,-94.29990064,1.13729508
1.14813320,2.35579504

>  <Name>
ligand

>  <RI>
0

>  <Rbt.Current_Directory>
/home/itssahil/PROJECTS/Mol_Feturizer/New_Systems/rnas/2CKY

>  <Rbt.Executable>
rbdock ($Id: //depot/dev/client3/rdock/2013.1/src/exe/rbdock.cxx#4 $)

>  <Rbt.Library>
libRbt.so (2013.1, Build901 2013/11/27)

>  <Rbt.Parameter_File>
/export/apps/rDock/src/rDock_2013.1_src/data/scripts/dock_solv.prm

>  <Rbt.Receptor>
prm/pocket_docking_2.prm

>  <SCORE>
-16.3464

>  <SCORE.INTER>
-13.0795

>  <SCORE.INTER.CONST>
1

>  <SCORE.INTER.POLAR>
0

>  <SCORE.INTER.ROT>
8

>  <SCORE.INTER.SOLV>
18.0317

>  <SCORE.INTER.VDW>
-23.6636

>  <SCORE.INTER.norm>
-0.503056

>  <SCORE.INTRA>
-3.57719

>  <SCORE.INTRA.DIHEDRAL>
-5.61974

>  <SCORE.INTRA.DIHEDRAL.0>
16.4846

>  <SCORE.INTRA.POLAR>
0

>  <SCORE.INTRA.POLAR.0>
0

>  <SCORE.INTRA.REPUL>
0

>  <SCORE.INTRA.REPUL.0>
0

>  <SCORE.INTRA.SOLV>
0.573294

>  <SCORE.INTRA.SOLV.lig_0>
-82.6983

>  <SCORE.INTRA.VDW>
-1.05397

>  <SCORE.INTRA.VDW.0>
-2.11466

>  <SCORE.INTRA.norm>
-0.137584

>  <SCORE.RESTR>
0.31023

>  <SCORE.RESTR.CAVITY>
0.31023

>  <SCORE.RESTR.norm>
0.0119319

>  <SCORE.SYSTEM>
0

>  <SCORE.SYSTEM.CONST>
0

>  <SCORE.SYSTEM.DIHEDRAL>
0

>  <SCORE.SYSTEM.SOLV>
0

>  <SCORE.SYSTEM.norm>
0

>  <SCORE.heavy>
26

>  <SCORE.norm>
-0.628709

>  <RMSD>
2.130

$$$$
ligand
 OpenBabel11021811423D
libRbt.so/2013.1/901 2013/11/27
 26 27  0  0  0  0  0  0  0  0999 V2000
    2.5706  -17.8586  -87.8771 C   0  0  0  0  0  0  0  0  0  0  0  0
   -0.4056  -17.9804  -95.6597 C   0  0  0  0  0  0  0  0  0  0  0  0
    0.1877  -14.8009 -100.0056 P   0  0  2  0  0  0  0  0  0  0  0  0
    2.6955  -13.6287  -99.9197 P   0  0  2  0  0  0  0  0  0  0  0  0
   -0.7756  -17.8062  -92.5317 C   0  0  0  0  0  0  0  0  0  0  0  0
   -0.4221  -17.8833  -90.0762 C   0  0  0  0  0  0  0  0  0  0  0  0
    0.1425  -17.7928  -91.3419 C   0  0  0  0  0  0  0  0  0  0  0  0
    1.5350  -17.7485  -91.4577 C   0  0  0  0  0  0  0  0  0  0  0  0
    2.1886  -17.6747  -92.6175 N   0  0  0  0  0  0  0  0  0  0  0  0
    2.2986  -17.7759  -90.3196 N   0  0  0  0  0  0  0  0  0  0  0  0
    1.7137  -17.8454  -89.0866 C   0  0  0  0  0  0  0  0  0  0  0  0
    0.3642  -17.9043  -88.9443 N   0  0  0  0  0  0  0  0  0  0  0  0
    0.3609  -16.3055 -100.0708 O   0  5  0  0  0  0  0  0  0  0  0  0
    2.9699  -14.5531 -101.0845 O   0  0  0  0  0  0  0  0  0  0  0  0
   -0.2443  -14.3250  -94.2543 S   0  0  0  0  0  0  0  0  0  0  0  0
   -0.5071  -15.3933  -93.0519 C   0  0  0  0  0  0  0  0  0  0  0  0
    0.0228  -14.3256 -101.4468 O   0  0  0  0  0  0  0  0  0  0  0  0
    3.8465  -13.6087  -98.9345 O   0  5  0  0  0  0  0  0  0  0  0  0
   -0.5883  -16.7128  -93.4551 N   0  0  0  0  0  0  0  0  0  0  0  0
    1.4264  -14.2140  -99.1529 O   0  0  0  0  0  0  0  0  0  0  0  0
    2.4372  -12.2397 -100.4670 O   0  0  0  0  0  0  0  0  0  0  0  0
   -0.4121  -16.7682  -94.8157 C   0  0  1  0  0  0  0  0  0  0  0  0
   -0.2082  -15.4863  -95.3501 C   0  0  2  0  0  0  0  0  0  0  0  0
    0.0493  -14.9359  -96.7312 C   0  0  0  0  0  0  0  0  0  0  0  0
   -1.1486  -15.1721  -97.6571 C   0  0  0  0  0  0  0  0  0  0  0  0
   -0.9569  -14.4555  -98.8707 O   0  0  0  0  0  0  0  0  0  0  0  0
  1 11  1  0  0  0  0
  3 13  1  6  0  0  0
  3 17  2  0  0  0  0
  3 20  1  0  0  0  0
  3 26  1  0  0  0  0
  4 14  1  6  0  0  0
  4 18  1  0  0  0  0
  4 21  2  0  0  0  0
  4 20  1  0  0  0  0
  5 19  1  0  0  0  0
  5  7  1  0  0  0  0
  6  7  2  0  0  0  0
  6 12  1  0  0  0  0
  7  8  1  0  0  0  0
  8  9  1  0  0  0  0
  8 10  2  0  0  0  0
 10 11  1  0  0  0  0
 11 12  2  0  0  0  0
 15 23  1  0  0  0  0
 15 16  1  0  0  0  0
 16 19  1  0  0  0  0
 19 22  1  0  0  0  0
 22  2  1  1  0  0  0
 22 23  1  0  0  0  0
 23 24  1  1  0  0  0
 24 25  1  0  0  0  0
 25 26  1  0  0  0  0
M  CHG  2  13  -1  18  -1
M  END
>  <CHROM.1>
97.43207977,-48.51332528,127.46397189,-40.68625164,-115.68658187,170.64233660
68.24092102,35.65323887,0.79200372,-15.67375302,-95.78961377,-1.62265887
-0.25060624,-1.24171863

>  <Name>
ligand

>  <RI>
0

>  <Rbt.Current_Directory>
/home/itssahil/PROJECTS/Mol_Feturizer/New_Systems/rnas/2CKY

>  <Rbt.Executable>
rbdock ($Id: //depot/dev/client3/rdock/2013.1/src/exe/rbdock.cxx#4 $)

>  <Rbt.Library>
libRbt.so (2013.1, Build901 2013/11/27)

>  <Rbt.Parameter_File>
/export/apps/rDock/src/rDock_2013.1_src/data/scripts/dock_solv.prm

>  <Rbt.Receptor>
prm/pocket_docking_3.prm

>  <SCORE>
-12.3858

>  <SCORE.INTER>
-8.165

>  <SCORE.INTER.CONST>
1

>  <SCORE.INTER.POLAR>
0

>  <SCORE.INTER.ROT>
8

>  <SCORE.INTER.SOLV>
13.2171

>  <SCORE.INTER.VDW>
-18.7824

>  <SCORE.INTER.norm>
-0.314038

>  <SCORE.INTRA>
-4.2208

>  <SCORE.INTRA.DIHEDRAL>
-8.61413

>  <SCORE.INTRA.DIHEDRAL.0>
16.4846

>  <SCORE.INTRA.POLAR>
0

>  <SCORE.INTRA.POLAR.0>
0

>  <SCORE.INTRA.REPUL>
0

>  <SCORE.INTRA.REPUL.0>
0

>  <SCORE.INTRA.SOLV>
2.70836

>  <SCORE.INTRA.SOLV.lig_0>
-82.6983

>  <SCORE.INTRA.VDW>
-1.26791

>  <SCORE.INTRA.VDW.0>
-2.11466

>  <SCORE.INTRA.norm>
-0.162339

>  <SCORE.RESTR>
0

>  <SCORE.RESTR.CAVITY>
0

>  <SCORE.RESTR.norm>
0

>  <SCORE.SYSTEM>
0

>  <SCORE.SYSTEM.CONST>
0

>  <SCORE.SYSTEM.DIHEDRAL>
0

>  <SCORE.SYSTEM.SOLV>
0

>  <SCORE.SYSTEM.norm>
0

>  <SCORE.heavy>
26

>  <SCORE.norm>
-0.476377

>  <RMSD>
2.132

$$$$
ligand
 OpenBabel11021811423D
libRbt.so/2013.1/901 2013/11/27
 26 27  0  0  0  0  0  0  0  0999 V2000
    0.0345  -18.8828  -85.6297 C   0  0  0  0  0  0  0  0  0  0  0  0
   -0.3458  -18.5853  -93.7713 C   0  0  0  0  0  0  0  0  0  0  0  0
    1.2753  -15.5497  -97.9325 P   0  0  2  0  0  0  0  0  0  0  0  0
   -0.3224  -14.1727  -99.7275 P   0  0  2  0  0  0  0  0  0  0  0  0
    1.4425  -18.5023  -91.1739 C   0  0  0  0  0  0  0  0  0  0  0  0
    0.0593  -19.3814  -89.3099 C   0  0  0  0  0  0  0  0  0  0  0  0
    1.0964  -18.5498  -89.7121 C   0  0  0  0  0  0  0  0  0  0  0  0
    1.8060  -17.8382  -88.7404 C   0  0  0  0  0  0  0  0  0  0  0  0
    2.8264  -17.0218  -89.0051 N   0  0  0  0  0  0  0  0  0  0  0  0
    1.4445  -17.9675  -87.4243 N   0  0  0  0  0  0  0  0  0  0  0  0
    0.4065  -18.7786  -87.0609 C   0  0  0  0  0  0  0  0  0  0  0  0
   -0.2912  -19.4930  -87.9815 N   0  0  0  0  0  0  0  0  0  0  0  0
    2.7284  -15.4650  -97.5090 O   0  5  0  0  0  0  0  0  0  0  0  0
   -0.2363  -12.8876 -100.5197 O   0  0  0  0  0  0  0  0  0  0  0  0
    0.4349  -14.9572  -92.5101 S   0  0  0  0  0  0  0  0  0  0  0  0
    1.1172  -16.0668  -91.5306 C   0  0  0  0  0  0  0  0  0  0  0  0
    1.1173  -16.8834  -98.6579 O   0  0  0  0  0  0  0  0  0  0  0  0
   -1.5650  -14.2174  -98.8618 O   0  5  0  0  0  0  0  0  0  0  0  0
    0.8874  -17.3806  -91.8928 N   0  0  0  0  0  0  0  0  0  0  0  0
    0.9366  -14.1995  -98.7500 O   0  0  0  0  0  0  0  0  0  0  0  0
   -0.3089  -15.3328 -100.7022 O   0  0  0  0  0  0  0  0  0  0  0  0
    0.1194  -17.3948  -93.0310 C   0  0  1  0  0  0  0  0  0  0  0  0
   -0.1792  -16.0899  -93.4538 C   0  0  2  0  0  0  0  0  0  0  0  0
   -0.9454  -15.4927  -94.6082 C   0  0  0  0  0  0  0  0  0  0  0  0
   -0.5066  -16.1037  -95.9434 C   0  0  0  0  0  0  0  0  0  0  0  0
    0.3301  -15.1830  -96.6326 O   0  0  0  0  0  0  0  0  0  0  0  0
  1 11  1  0  0  0  0
  3 13  1  1  0  0  0
  3 17  2  0  0  0  0
  3 20  1  0  0  0  0
  3 26  1  0  0  0  0
  4 14  1  6  0  0  0
  4 18  1  0  0  0  0
  4 21  2  0  0  0  0
  4 20  1  0  0  0  0
  5 19  1  0  0  0  0
  5  7  1  0  0  0  0
  6  7  2  0  0  0  0
  6 12  1  0  0  0  0
  7  8  1  0  0  0  0
  8  9  1  0  0  0  0
  8 10  2  0  0  0  0
 10 11  1  0  0  0  0
 11 12  2  0  0  0  0
 15 23  1  0  0  0  0
 15 16  1  0  0  0  0
 16 19  1  0  0  0  0
 19 22  1  0  0  0  0
 22  2  1  6  0  0  0
 22 23  1  0  0  0  0
 23 24  1  6  0  0  0
 24 25  1  0  0  0  0
 25 26  1  0  0  0  0
M  CHG  2  13  -1  18  -1
M  END
>  <CHROM.1>
160.00119566,56.92118815,98.89886891,-170.16900968,129.75055625,-103.65366401
166.02973876,-111.34730330,0.49731555,-16.32953100,-94.18729427,-1.38427201
-1.27062712,-1.06519291

>  <Name>
ligand

>  <RI>
0

>  <Rbt.Current_Directory>
/home/itssahil/PROJECTS/Mol_Feturizer/New_Systems/rnas/2CKY

>  <Rbt.Executable>
rbdock ($Id: //depot/dev/client3/rdock/2013.1/src/exe/rbdock.cxx#4 $)

>  <Rbt.Library>
libRbt.so (2013.1, Build901 2013/11/27)

>  <Rbt.Parameter_File>
/export/apps/rDock/src/rDock_2013.1_src/data/scripts/dock_solv.prm

>  <Rbt.Receptor>
prm/pocket_docking_2.prm

>  <SCORE>
-13.5847

>  <SCORE.INTER>
-12.2439

>  <SCORE.INTER.CONST>
1

>  <SCORE.INTER.POLAR>
0

>  <SCORE.INTER.ROT>
8

>  <SCORE.INTER.SOLV>
14.0724

>  <SCORE.INTER.VDW>
-21.7867

>  <SCORE.INTER.norm>
-0.470919

>  <SCORE.INTRA>
-2.0609

>  <SCORE.INTRA.DIHEDRAL>
-3.26632

>  <SCORE.INTRA.DIHEDRAL.0>
16.4846

>  <SCORE.INTRA.POLAR>
0

>  <SCORE.INTRA.POLAR.0>
0

>  <SCORE.INTRA.REPUL>
0

>  <SCORE.INTRA.REPUL.0>
0

>  <SCORE.INTRA.SOLV>
2.51039

>  <SCORE.INTRA.SOLV.lig_0>
-82.6983

>  <SCORE.INTRA.VDW>
-1.68294

>  <SCORE.INTRA.VDW.0>
-2.11466

>  <SCORE.INTRA.norm>
-0.0792654

>  <SCORE.RESTR>
0.720117

>  <SCORE.RESTR.CAVITY>
0.720117

>  <SCORE.RESTR.norm>
0.0276968

>  <SCORE.SYSTEM>
0

>  <SCORE.SYSTEM.CONST>
0

>  <SCORE.SYSTEM.DIHEDRAL>
0

>  <SCORE.SYSTEM.SOLV>
0

>  <SCORE.SYSTEM.norm>
0

>  <SCORE.heavy>
26

>  <SCORE.norm>
-0.522487

>  <RMSD>
2.149

$$$$
ligand
 OpenBabel11021811423D
libRbt.so/2013.1/901 2013/11/27
 26 27  0  0  0  0  0  0  0  0999 V2000
   -0.1270  -19.1842  -86.1464 C   0  0  0  0  0  0  0  0  0  0  0  0
    2.4292  -17.8915  -93.8647 C   0  0  0  0  0  0  0  0  0  0  0  0
    1.3060  -13.4855  -98.3399 P   0  0  2  0  0  0  0  0  0  0  0  0
    0.9184  -15.0191 -100.6133 P   0  0  2  0  0  0  0  0  0  0  0  0
    2.6040  -17.2184  -90.7878 C   0  0  0  0  0  0  0  0  0  0  0  0
    2.4321  -17.6343  -88.3469 C   0  0  0  0  0  0  0  0  0  0  0  0
    1.8594  -17.7707  -89.6049 C   0  0  0  0  0  0  0  0  0  0  0  0
    0.5977  -18.3632  -89.7110 C   0  0  0  0  0  0  0  0  0  0  0  0
   -0.0550  -18.5356  -90.8608 N   0  0  0  0  0  0  0  0  0  0  0  0
   -0.0261  -18.8085  -88.5744 N   0  0  0  0  0  0  0  0  0  0  0  0
    0.5710  -18.6781  -87.3523 C   0  0  0  0  0  0  0  0  0  0  0  0
    1.7896  -18.0936  -87.2172 N   0  0  0  0  0  0  0  0  0  0  0  0
    0.8331  -12.1065  -97.9241 O   0  5  0  0  0  0  0  0  0  0  0  0
    2.1119  -14.3727 -101.2799 O   0  0  0  0  0  0  0  0  0  0  0  0
    0.1372  -14.9058  -92.7715 S   0  0  0  0  0  0  0  0  0  0  0  0
    0.9456  -15.5099  -91.4918 C   0  0  0  0  0  0  0  0  0  0  0  0
    2.8032  -13.3617  -98.6100 O   0  0  0  0  0  0  0  0  0  0  0  0
   -0.1949  -15.2986 -101.6021 O   0  5  0  0  0  0  0  0  0  0  0  0
    1.7758  -16.5764  -91.7804 N   0  0  0  0  0  0  0  0  0  0  0  0
    0.3566  -13.9708  -99.5519 O   0  0  0  0  0  0  0  0  0  0  0  0
    1.3809  -16.3023  -99.9534 O   0  0  0  0  0  0  0  0  0  0  0  0
    1.6953  -16.8449  -93.1246 C   0  0  1  0  0  0  0  0  0  0  0  0
    0.8100  -15.9620  -93.7627 C   0  0  2  0  0  0  0  0  0  0  0  0
    0.3416  -15.7637  -95.1832 C   0  0  0  0  0  0  0  0  0  0  0  0
    1.2022  -14.7275  -95.9139 C   0  0  0  0  0  0  0  0  0  0  0  0
    0.7367  -14.5835  -97.2501 O   0  0  0  0  0  0  0  0  0  0  0  0
  1 11  1  0  0  0  0
  3 13  1  1  0  0  0
  3 17  2  0  0  0  0
  3 20  1  0  0  0  0
  3 26  1  0  0  0  0
  4 14  1  6  0  0  0
  4 18  1  0  0  0  0
  4 21  2  0  0  0  0
  4 20  1  0  0  0  0
  5 19  1  0  0  0  0
  5  7  1  0  0  0  0
  6  7  2  0  0  0  0
  6 12  1  0  0  0  0
  7  8  1  0  0  0  0
  8  9  1  0  0  0  0
  8 10  2  0  0  0  0
 10 11  1  0  0  0  0
 11 12  2  0  0  0  0
 15 23  1  0  0  0  0
 15 16  1  0  0  0  0
 16 19  1  0  0  0  0
 19 22  1  0  0  0  0
 22  2  1  6  0  0  0
 22 23  1  0  0  0  0
 23 24  1  6  0  0  0
 24 25  1  0  0  0  0
 25 26  1  0  0  0  0
M  CHG  2  13  -1  18  -1
M  END
>  <CHROM.1>
153.59939090,57.65755692,-140.51225439,-61.00906409,86.82820424,179.33585317
174.88359126,-71.52322252,1.07675856,-15.89082248,-94.59122604,1.72733985
1.50225847,1.73974118

>  <Name>
ligand

>  <RI>
0

>  <Rbt.Current_Directory>
/home/itssahil/PROJECTS/Mol_Feturizer/New_Systems/rnas/2CKY

>  <Rbt.Executable>
rbdock ($Id: //depot/dev/client3/rdock/2013.1/src/exe/rbdock.cxx#4 $)

>  <Rbt.Library>
libRbt.so (2013.1, Build901 2013/11/27)

>  <Rbt.Parameter_File>
/export/apps/rDock/src/rDock_2013.1_src/data/scripts/dock_solv.prm

>  <Rbt.Receptor>
prm/pocket_docking_3.prm

>  <SCORE>
-20.7388

>  <SCORE.INTER>
-15.0887

>  <SCORE.INTER.CONST>
1

>  <SCORE.INTER.POLAR>
0

>  <SCORE.INTER.ROT>
8

>  <SCORE.INTER.SOLV>
11.1068

>  <SCORE.INTER.VDW>
-22.6948

>  <SCORE.INTER.norm>
-0.580336

>  <SCORE.INTRA>
-5.65009

>  <SCORE.INTRA.DIHEDRAL>
-10.111

>  <SCORE.INTRA.DIHEDRAL.0>
16.4846

>  <SCORE.INTRA.POLAR>
0

>  <SCORE.INTRA.POLAR.0>
0

>  <SCORE.INTRA.REPUL>
0

>  <SCORE.INTRA.REPUL.0>
0

>  <SCORE.INTRA.SOLV>
2.46668

>  <SCORE.INTRA.SOLV.lig_0>
-82.6983

>  <SCORE.INTRA.VDW>
-1.82795

>  <SCORE.INTRA.VDW.0>
-2.11466

>  <SCORE.INTRA.norm>
-0.217311

>  <SCORE.RESTR>
0

>  <SCORE.RESTR.CAVITY>
0

>  <SCORE.RESTR.norm>
0

>  <SCORE.SYSTEM>
0

>  <SCORE.SYSTEM.CONST>
0

>  <SCORE.SYSTEM.DIHEDRAL>
0

>  <SCORE.SYSTEM.SOLV>
0

>  <SCORE.SYSTEM.norm>
0

>  <SCORE.heavy>
26

>  <SCORE.norm>
-0.797648

>  <RMSD>
2.152

$$$$
ligand
 OpenBabel11021811423D
libRbt.so/2013.1/901 2013/11/27
 26 27  0  0  0  0  0  0  0  0999 V2000
   -0.0264  -18.9829  -85.6414 C   0  0  0  0  0  0  0  0  0  0  0  0
    1.7037  -15.3732  -92.8080 C   0  0  0  0  0  0  0  0  0  0  0  0
    1.0002  -16.6162  -97.5459 P   0  0  2  0  0  0  0  0  0  0  0  0
    3.4635  -15.3517  -97.4866 P   0  0  2  0  0  0  0  0  0  0  0  0
    1.7989  -17.9385  -90.9746 C   0  0  0  0  0  0  0  0  0  0  0  0
    0.1857  -18.8939  -89.3482 C   0  0  0  0  0  0  0  0  0  0  0  0
    1.3496  -18.1658  -89.5585 C   0  0  0  0  0  0  0  0  0  0  0  0
    2.0788  -17.7247  -88.4505 C   0  0  0  0  0  0  0  0  0  0  0  0
    3.2146  -17.0306  -88.5287 N   0  0  0  0  0  0  0  0  0  0  0  0
    1.6133  -18.0068  -87.1922 N   0  0  0  0  0  0  0  0  0  0  0  0
    0.4541  -18.7086  -87.0167 C   0  0  0  0  0  0  0  0  0  0  0  0
   -0.2673  -19.1622  -88.0743 N   0  0  0  0  0  0  0  0  0  0  0  0
    0.6048  -18.0725  -97.6901 O   0  5  0  0  0  0  0  0  0  0  0  0
    3.4536  -15.2855  -98.9973 O   0  0  0  0  0  0  0  0  0  0  0  0
   -1.4827  -17.6373  -93.0980 S   0  0  0  0  0  0  0  0  0  0  0  0
   -0.4127  -18.2803  -92.0502 C   0  0  0  0  0  0  0  0  0  0  0  0
    0.6457  -15.9428  -98.8691 O   0  0  0  0  0  0  0  0  0  0  0  0
    4.8520  -15.6245  -96.9449 O   0  5  0  0  0  0  0  0  0  0  0  0
    0.7512  -17.5524  -91.8892 N   0  0  0  0  0  0  0  0  0  0  0  0
    2.5427  -16.5847  -97.0709 O   0  0  0  0  0  0  0  0  0  0  0  0
    2.9299  -14.0388  -96.9507 O   0  0  0  0  0  0  0  0  0  0  0  0
    0.6845  -16.4351  -92.6845 C   0  0  1  0  0  0  0  0  0  0  0  0
   -0.5265  -16.3925  -93.3931 C   0  0  2  0  0  0  0  0  0  0  0  0
   -1.1539  -15.4336  -94.3747 C   0  0  0  0  0  0  0  0  0  0  0  0
   -0.9932  -15.9278  -95.8163 C   0  0  0  0  0  0  0  0  0  0  0  0
    0.3903  -16.0477  -96.1238 O   0  0  0  0  0  0  0  0  0  0  0  0
  1 11  1  0  0  0  0
  3 13  1  6  0  0  0
  3 17  2  0  0  0  0
  3 20  1  0  0  0  0
  3 26  1  0  0  0  0
  4 14  1  6  0  0  0
  4 18  1  0  0  0  0
  4 21  2  0  0  0  0
  4 20  1  0  0  0  0
  5 19  1  0  0  0  0
  5  7  1  0  0  0  0
  6  7  2  0  0  0  0
  6 12  1  0  0  0  0
  7  8  1  0  0  0  0
  8  9  1  0  0  0  0
  8 10  2  0  0  0  0
 10 11  1  0  0  0  0
 11 12  2  0  0  0  0
 15 23  1  0  0  0  0
 15 16  1  0  0  0  0
 16 19  1  0  0  0  0
 19 22  1  0  0  0  0
 22  2  1  1  0  0  0
 22 23  1  0  0  0  0
 23 24  1  1  0  0  0
 24 25  1  0  0  0  0
 25 26  1  0  0  0  0
M  CHG  2  13  -1  18  -1
M  END
>  <CHROM.1>
150.40130145,-53.71282965,44.45261917,-58.00480961,-80.17060583,-60.08164886
176.93540756,-64.45308709,1.14273944,-16.85742965,-93.61063312,-1.71987896
-0.26780028,-1.35149050

>  <Name>
ligand

>  <RI>
0

>  <Rbt.Current_Directory>
/home/itssahil/PROJECTS/Mol_Feturizer/New_Systems/rnas/2CKY

>  <Rbt.Executable>
rbdock ($Id: //depot/dev/client3/rdock/2013.1/src/exe/rbdock.cxx#4 $)

>  <Rbt.Library>
libRbt.so (2013.1, Build901 2013/11/27)

>  <Rbt.Parameter_File>
/export/apps/rDock/src/rDock_2013.1_src/data/scripts/dock_solv.prm

>  <Rbt.Receptor>
prm/pocket_docking_3.prm

>  <SCORE>
-21.8442

>  <SCORE.INTER>
-15.0756

>  <SCORE.INTER.CONST>
1

>  <SCORE.INTER.POLAR>
0

>  <SCORE.INTER.ROT>
8

>  <SCORE.INTER.SOLV>
15.6146

>  <SCORE.INTER.VDW>
-24.1886

>  <SCORE.INTER.norm>
-0.57983

>  <SCORE.INTRA>
-6.77522

>  <SCORE.INTRA.DIHEDRAL>
-10.0946

>  <SCORE.INTRA.DIHEDRAL.0>
16.4846

>  <SCORE.INTRA.POLAR>
0

>  <SCORE.INTRA.POLAR.0>
0

>  <SCORE.INTRA.REPUL>
0

>  <SCORE.INTRA.REPUL.0>
0

>  <SCORE.INTRA.SOLV>
-0.593878

>  <SCORE.INTRA.SOLV.lig_0>
-82.6983

>  <SCORE.INTRA.VDW>
-1.431

>  <SCORE.INTRA.VDW.0>
-2.11466

>  <SCORE.INTRA.norm>
-0.260585

>  <SCORE.RESTR>
0.00656759

>  <SCORE.RESTR.CAVITY>
0.00656759

>  <SCORE.RESTR.norm>
0.000252599

>  <SCORE.SYSTEM>
0

>  <SCORE.SYSTEM.CONST>
0

>  <SCORE.SYSTEM.DIHEDRAL>
0

>  <SCORE.SYSTEM.SOLV>
0

>  <SCORE.SYSTEM.norm>
0

>  <SCORE.heavy>
26

>  <SCORE.norm>
-0.840162

>  <RMSD>
2.152

$$$$
ligand
 OpenBabel11021811423D
libRbt.so/2013.1/901 2013/11/27
 26 27  0  0  0  0  0  0  0  0999 V2000
    0.2350  -19.0455  -86.2573 C   0  0  0  0  0  0  0  0  0  0  0  0
    0.2784  -15.4442  -92.5457 C   0  0  0  0  0  0  0  0  0  0  0  0
    0.9737  -15.0433  -98.1249 P   0  0  2  0  0  0  0  0  0  0  0  0
    3.5762  -15.0226  -99.0720 P   0  0  2  0  0  0  0  0  0  0  0  0
    2.5279  -17.1733  -91.1668 C   0  0  0  0  0  0  0  0  0  0  0  0
    2.6149  -17.6207  -88.7270 C   0  0  0  0  0  0  0  0  0  0  0  0
    1.8921  -17.6986  -89.9104 C   0  0  0  0  0  0  0  0  0  0  0  0
    0.5910  -18.2088  -89.8738 C   0  0  0  0  0  0  0  0  0  0  0  0
   -0.2009  -18.3196  -90.9407 N   0  0  0  0  0  0  0  0  0  0  0  0
    0.0764  -18.6340  -88.6764 N   0  0  0  0  0  0  0  0  0  0  0  0
    0.8190  -18.5630  -87.5315 C   0  0  0  0  0  0  0  0  0  0  0  0
    2.0801  -18.0587  -87.5344 N   0  0  0  0  0  0  0  0  0  0  0  0
   -0.0518  -15.2504  -99.2219 O   0  5  0  0  0  0  0  0  0  0  0  0
    4.6006  -16.0380  -99.5261 O   0  0  0  0  0  0  0  0  0  0  0  0
    1.0568  -18.7993  -94.4165 S   0  0  0  0  0  0  0  0  0  0  0  0
    2.0082  -18.6381  -93.1031 C   0  0  0  0  0  0  0  0  0  0  0  0
    1.0791  -13.5349  -97.9159 O   0  0  0  0  0  0  0  0  0  0  0  0
    4.0801  -14.1990  -97.9043 O   0  5  0  0  0  0  0  0  0  0  0  0
    1.8104  -17.4756  -92.3822 N   0  0  0  0  0  0  0  0  0  0  0  0
    2.3074  -15.8413  -98.5610 O   0  0  0  0  0  0  0  0  0  0  0  0
    3.2391  -14.1298 -100.2489 O   0  0  0  0  0  0  0  0  0  0  0  0
    0.8201  -16.7443  -92.9904 C   0  0  1  0  0  0  0  0  0  0  0  0
    0.3345  -17.4039  -94.1305 C   0  0  2  0  0  0  0  0  0  0  0  0
   -0.7280  -17.1096  -95.1605 C   0  0  0  0  0  0  0  0  0  0  0  0
   -0.4282  -15.8095  -95.9143 C   0  0  0  0  0  0  0  0  0  0  0  0
    0.6019  -16.0419  -96.8671 O   0  0  0  0  0  0  0  0  0  0  0  0
  1 11  1  0  0  0  0
  3 13  1  6  0  0  0
  3 17  2  0  0  0  0
  3 20  1  0  0  0  0
  3 26  1  0  0  0  0
  4 14  1  6  0  0  0
  4 18  1  0  0  0  0
  4 21  2  0  0  0  0
  4 20  1  0  0  0  0
  5 19  1  0  0  0  0
  5  7  1  0  0  0  0
  6  7  2  0  0  0  0
  6 12  1  0  0  0  0
  7  8  1  0  0  0  0
  8  9  1  0  0  0  0
  8 10  2  0  0  0  0
 10 11  1  0  0  0  0
 11 12  2  0  0  0  0
 15 23  1  0  0  0  0
 15 16  1  0  0  0  0
 16 19  1  0  0  0  0
 19 22  1  0  0  0  0
 22  2  1  1  0  0  0
 22 23  1  0  0  0  0
 23 24  1  1  0  0  0
 24 25  1  0  0  0  0
 25 26  1  0  0  0  0
M  CHG  2  13  -1  18  -1
M  END
>  <CHROM.1>
106.14646829,-88.02907878,170.75545114,-174.65329075,-119.85230196,76.47672707
164.16046900,-77.70679234,1.47582042,-16.61862984,-94.44845689,1.70236493
0.11274306,1.87743035

>  <Name>
ligand

>  <RI>
0

>  <Rbt.Current_Directory>
/home/itssahil/PROJECTS/Mol_Feturizer/New_Systems/rnas/2CKY

>  <Rbt.Executable>
rbdock ($Id: //depot/dev/client3/rdock/2013.1/src/exe/rbdock.cxx#4 $)

>  <Rbt.Library>
libRbt.so (2013.1, Build901 2013/11/27)

>  <Rbt.Parameter_File>
/export/apps/rDock/src/rDock_2013.1_src/data/scripts/dock_solv.prm

>  <Rbt.Receptor>
prm/pocket_docking_2.prm

>  <SCORE>
-16.8592

>  <SCORE.INTER>
-14.578

>  <SCORE.INTER.CONST>
1

>  <SCORE.INTER.POLAR>
0

>  <SCORE.INTER.ROT>
8

>  <SCORE.INTER.SOLV>
9.03626

>  <SCORE.INTER.VDW>
-21.6641

>  <SCORE.INTER.norm>
-0.560691

>  <SCORE.INTRA>
-2.29377

>  <SCORE.INTRA.DIHEDRAL>
-7.63832

>  <SCORE.INTRA.DIHEDRAL.0>
16.4846

>  <SCORE.INTRA.POLAR>
0

>  <SCORE.INTRA.POLAR.0>
0

>  <SCORE.INTRA.REPUL>
0

>  <SCORE.INTRA.REPUL.0>
0

>  <SCORE.INTRA.SOLV>
6.53027

>  <SCORE.INTRA.SOLV.lig_0>
-82.6983

>  <SCORE.INTRA.VDW>
-1.73974

>  <SCORE.INTRA.VDW.0>
-2.11466

>  <SCORE.INTRA.norm>
-0.0882218

>  <SCORE.RESTR>
0.0125232

>  <SCORE.RESTR.CAVITY>
0.0125232

>  <SCORE.RESTR.norm>
0.000481661

>  <SCORE.SYSTEM>
0

>  <SCORE.SYSTEM.CONST>
0

>  <SCORE.SYSTEM.DIHEDRAL>
0

>  <SCORE.SYSTEM.SOLV>
0

>  <SCORE.SYSTEM.norm>
0

>  <SCORE.heavy>
26

>  <SCORE.norm>
-0.648431

>  <RMSD>
2.153

$$$$
ligand
 OpenBabel11021811423D
libRbt.so/2013.1/901 2013/11/27
 26 27  0  0  0  0  0  0  0  0999 V2000
    0.5409  -18.8282  -86.5513 C   0  0  0  0  0  0  0  0  0  0  0  0
    2.0977  -17.7022  -95.1089 C   0  0  0  0  0  0  0  0  0  0  0  0
    1.2121  -14.1773  -98.0647 P   0  0  2  0  0  0  0  0  0  0  0  0
    0.5308  -15.0999 -100.5857 P   0  0  2  0  0  0  0  0  0  0  0  0
    2.1220  -17.7473  -91.9548 C   0  0  0  0  0  0  0  0  0  0  0  0
    2.3603  -17.4866  -89.4980 C   0  0  0  0  0  0  0  0  0  0  0  0
    1.6845  -18.0805  -90.5561 C   0  0  0  0  0  0  0  0  0  0  0  0
    0.5978  -18.9151  -90.2789 C   0  0  0  0  0  0  0  0  0  0  0  0
   -0.1330  -19.5283  -91.2104 N   0  0  0  0  0  0  0  0  0  0  0  0
    0.2453  -19.1371  -88.9728 N   0  0  0  0  0  0  0  0  0  0  0  0
    0.9417  -18.5540  -87.9519 C   0  0  0  0  0  0  0  0  0  0  0  0
    1.9923  -17.7273  -88.1916 N   0  0  0  0  0  0  0  0  0  0  0  0
   -0.2461  -13.7811  -98.1863 O   0  5  0  0  0  0  0  0  0  0  0  0
    0.0990  -13.7258 -101.0462 O   0  0  0  0  0  0  0  0  0  0  0  0
   -1.1121  -16.1453  -93.4853 S   0  0  0  0  0  0  0  0  0  0  0  0
   -0.0864  -16.6786  -92.3366 C   0  0  0  0  0  0  0  0  0  0  0  0
    1.9653  -12.9170  -97.6472 O   0  0  0  0  0  0  0  0  0  0  0  0
   -0.6143  -15.8682  -99.9580 O   0  5  0  0  0  0  0  0  0  0  0  0
    1.0747  -17.2542  -92.8169 N   0  0  0  0  0  0  0  0  0  0  0  0
    1.6324  -14.8841  -99.4539 O   0  0  0  0  0  0  0  0  0  0  0  0
    1.0843  -15.8487 -101.7810 O   0  0  0  0  0  0  0  0  0  0  0  0
    1.0506  -17.2131  -94.1892 C   0  0  1  0  0  0  0  0  0  0  0  0
   -0.1274  -16.6079  -94.6546 C   0  0  2  0  0  0  0  0  0  0  0  0
   -0.6901  -16.2771  -96.0149 C   0  0  0  0  0  0  0  0  0  0  0  0
    0.3227  -16.5782  -97.1248 C   0  0  0  0  0  0  0  0  0  0  0  0
    1.3062  -15.5514  -97.1589 O   0  0  0  0  0  0  0  0  0  0  0  0
  1 11  1  0  0  0  0
  3 13  1  6  0  0  0
  3 17  2  0  0  0  0
  3 20  1  0  0  0  0
  3 26  1  0  0  0  0
  4 14  1  6  0  0  0
  4 18  1  0  0  0  0
  4 21  2  0  0  0  0
  4 20  1  0  0  0  0
  5 19  1  0  0  0  0
  5  7  1  0  0  0  0
  6  7  2  0  0  0  0
  6 12  1  0  0  0  0
  7  8  1  0  0  0  0
  8  9  1  0  0  0  0
  8 10  2  0  0  0  0
 10 11  1  0  0  0  0
 11 12  2  0  0  0  0
 15 23  1  0  0  0  0
 15 16  1  0  0  0  0
 16 19  1  0  0  0  0
 19 22  1  0  0  0  0
 22  2  1  1  0  0  0
 22 23  1  0  0  0  0
 23 24  1  1  0  0  0
 24 25  1  0  0  0  0
 25 26  1  0  0  0  0
M  CHG  2  13  -1  18  -1
M  END
>  <CHROM.1>
-3.01912819,22.25036274,-125.41003805,64.98651544,173.63181965,-76.91411730
-90.37574850,32.12479754,0.68831926,-16.35347121,-95.02122005,-1.54011867
-0.74443319,-1.21817775

>  <Name>
ligand

>  <RI>
0

>  <Rbt.Current_Directory>
/home/itssahil/PROJECTS/Mol_Feturizer/New_Systems/rnas/2CKY

>  <Rbt.Executable>
rbdock ($Id: //depot/dev/client3/rdock/2013.1/src/exe/rbdock.cxx#4 $)

>  <Rbt.Library>
libRbt.so (2013.1, Build901 2013/11/27)

>  <Rbt.Parameter_File>
/export/apps/rDock/src/rDock_2013.1_src/data/scripts/dock_solv.prm

>  <Rbt.Receptor>
prm/pocket_docking_2.prm

>  <SCORE>
-7.17935

>  <SCORE.INTER>
-9.90247

>  <SCORE.INTER.CONST>
1

>  <SCORE.INTER.POLAR>
0

>  <SCORE.INTER.ROT>
8

>  <SCORE.INTER.SOLV>
11.2838

>  <SCORE.INTER.VDW>
-19.2963

>  <SCORE.INTER.norm>
-0.380864

>  <SCORE.INTRA>
1.48375

>  <SCORE.INTRA.DIHEDRAL>
-3.51453

>  <SCORE.INTRA.DIHEDRAL.0>
16.4846

>  <SCORE.INTRA.POLAR>
0

>  <SCORE.INTRA.POLAR.0>
0

>  <SCORE.INTRA.REPUL>
0

>  <SCORE.INTRA.REPUL.0>
0

>  <SCORE.INTRA.SOLV>
4.06446

>  <SCORE.INTRA.SOLV.lig_0>
-82.6983

>  <SCORE.INTRA.VDW>
1.20878

>  <SCORE.INTRA.VDW.0>
-2.11466

>  <SCORE.INTRA.norm>
0.0570671

>  <SCORE.RESTR>
1.23938

>  <SCORE.RESTR.CAVITY>
1.23938

>  <SCORE.RESTR.norm>
0.0476685

>  <SCORE.SYSTEM>
0

>  <SCORE.SYSTEM.CONST>
0

>  <SCORE.SYSTEM.DIHEDRAL>
0

>  <SCORE.SYSTEM.SOLV>
0

>  <SCORE.SYSTEM.norm>
0

>  <SCORE.heavy>
26

>  <SCORE.norm>
-0.276129

>  <RMSD>
2.161

$$$$
ligand
 OpenBabel11021811423D
libRbt.so/2013.1/901 2013/11/27
 26 27  0  0  0  0  0  0  0  0999 V2000
   -0.5716  -19.4965  -85.8124 C   0  0  0  0  0  0  0  0  0  0  0  0
    1.0962  -15.0003  -92.0719 C   0  0  0  0  0  0  0  0  0  0  0  0
   -0.3553  -14.1786  -97.9309 P   0  0  2  0  0  0  0  0  0  0  0  0
    0.1449  -15.7511 -100.1553 P   0  0  2  0  0  0  0  0  0  0  0  0
    1.9727  -17.6534  -90.6077 C   0  0  0  0  0  0  0  0  0  0  0  0
    0.0753  -18.6749  -89.3761 C   0  0  0  0  0  0  0  0  0  0  0  0
    1.3383  -18.0997  -89.3204 C   0  0  0  0  0  0  0  0  0  0  0  0
    1.9849  -18.0104  -88.0843 C   0  0  0  0  0  0  0  0  0  0  0  0
    3.2007  -17.4914  -87.9102 N   0  0  0  0  0  0  0  0  0  0  0  0
    1.3458  -18.4746  -86.9638 N   0  0  0  0  0  0  0  0  0  0  0  0
    0.0947  -19.0179  -87.0471 C   0  0  0  0  0  0  0  0  0  0  0  0
   -0.5516  -19.1308  -88.2363 N   0  0  0  0  0  0  0  0  0  0  0  0
   -1.4278  -13.3334  -98.5892 O   0  5  0  0  0  0  0  0  0  0  0  0
    1.4806  -16.4577 -100.0993 O   0  0  0  0  0  0  0  0  0  0  0  0
   -0.6153  -18.2261  -93.4960 S   0  0  0  0  0  0  0  0  0  0  0  0
    0.4036  -18.6032  -92.2813 C   0  0  0  0  0  0  0  0  0  0  0  0
    0.9333  -13.3630  -97.9963 O   0  0  0  0  0  0  0  0  0  0  0  0
    0.2745  -14.3466 -100.7086 O   0  5  0  0  0  0  0  0  0  0  0  0
    1.0625  -17.5254  -91.7205 N   0  0  0  0  0  0  0  0  0  0  0  0
   -0.3740  -15.6220  -98.6535 O   0  0  0  0  0  0  0  0  0  0  0  0
   -0.7935  -16.5774 -101.0110 O   0  0  0  0  0  0  0  0  0  0  0  0
    0.6580  -16.3807  -92.3621 C   0  0  1  0  0  0  0  0  0  0  0  0
   -0.2809  -16.6700  -93.3648 C   0  0  2  0  0  0  0  0  0  0  0  0
   -1.0677  -15.8494  -94.3568 C   0  0  0  0  0  0  0  0  0  0  0  0
   -0.3356  -15.7462  -95.6991 C   0  0  0  0  0  0  0  0  0  0  0  0
   -0.9328  -14.7230  -96.4861 O   0  0  0  0  0  0  0  0  0  0  0  0
  1 11  1  0  0  0  0
  3 13  1  6  0  0  0
  3 17  2  0  0  0  0
  3 20  1  0  0  0  0
  3 26  1  0  0  0  0
  4 14  1  1  0  0  0
  4 18  1  0  0  0  0
  4 21  2  0  0  0  0
  4 20  1  0  0  0  0
  5 19  1  0  0  0  0
  5  7  1  0  0  0  0
  6  7  2  0  0  0  0
  6 12  1  0  0  0  0
  7  8  1  0  0  0  0
  8  9  1  0  0  0  0
  8 10  2  0  0  0  0
 10 11  1  0  0  0  0
 11 12  2  0  0  0  0
 15 23  1  0  0  0  0
 15 16  1  0  0  0  0
 16 19  1  0  0  0  0
 19 22  1  0  0  0  0
 22  2  1  1  0  0  0
 22 23  1  0  0  0  0
 23 24  1  1  0  0  0
 24 25  1  0  0  0  0
 25 26  1  0  0  0  0
M  CHG  2  13  -1  18  -1
M  END
>  <CHROM.1>
70.44357699,-65.62574138,16.59883678,107.33875376,-87.38392856,-166.17166928
173.26731368,167.09397437,0.23518811,-16.53428549,-94.19928319,1.36973715
1.16414469,2.05539879

>  <Name>
ligand

>  <RI>
0

>  <Rbt.Current_Directory>
/home/itssahil/PROJECTS/Mol_Feturizer/New_Systems/rnas/2CKY

>  <Rbt.Executable>
rbdock ($Id: //depot/dev/client3/rdock/2013.1/src/exe/rbdock.cxx#4 $)

>  <Rbt.Library>
libRbt.so (2013.1, Build901 2013/11/27)

>  <Rbt.Parameter_File>
/export/apps/rDock/src/rDock_2013.1_src/data/scripts/dock_solv.prm

>  <Rbt.Receptor>
prm/pocket_docking_2.prm

>  <SCORE>
-15.6804

>  <SCORE.INTER>
-11.8477

>  <SCORE.INTER.CONST>
1

>  <SCORE.INTER.POLAR>
0

>  <SCORE.INTER.ROT>
8

>  <SCORE.INTER.SOLV>
20.7325

>  <SCORE.INTER.VDW>
-23.7427

>  <SCORE.INTER.norm>
-0.455682

>  <SCORE.INTRA>
-4.04409

>  <SCORE.INTRA.DIHEDRAL>
-8.36557

>  <SCORE.INTRA.DIHEDRAL.0>
16.4846

>  <SCORE.INTRA.POLAR>
0

>  <SCORE.INTRA.POLAR.0>
0

>  <SCORE.INTRA.REPUL>
0

>  <SCORE.INTRA.REPUL.0>
0

>  <SCORE.INTRA.SOLV>
1.05833

>  <SCORE.INTRA.SOLV.lig_0>
-82.6983

>  <SCORE.INTRA.VDW>
-0.390466

>  <SCORE.INTRA.VDW.0>
-2.11466

>  <SCORE.INTRA.norm>
-0.155542

>  <SCORE.RESTR>
0.211434

>  <SCORE.RESTR.CAVITY>
0.211434

>  <SCORE.RESTR.norm>
0.00813206

>  <SCORE.SYSTEM>
0

>  <SCORE.SYSTEM.CONST>
0

>  <SCORE.SYSTEM.DIHEDRAL>
0

>  <SCORE.SYSTEM.SOLV>
0

>  <SCORE.SYSTEM.norm>
0

>  <SCORE.heavy>
26

>  <SCORE.norm>
-0.603092

>  <RMSD>
2.164

$$$$
ligand
 OpenBabel11021811423D
libRbt.so/2013.1/901 2013/11/27
 26 27  0  0  0  0  0  0  0  0999 V2000
    0.4077  -19.0100  -86.3610 C   0  0  0  0  0  0  0  0  0  0  0  0
   -0.3261  -15.8466  -93.0160 C   0  0  0  0  0  0  0  0  0  0  0  0
    0.6919  -15.6303  -98.3102 P   0  0  2  0  0  0  0  0  0  0  0  0
    3.1801  -15.0867  -99.3983 P   0  0  2  0  0  0  0  0  0  0  0  0
    2.1653  -16.9020  -91.3941 C   0  0  0  0  0  0  0  0  0  0  0  0
    2.4765  -17.3778  -88.9781 C   0  0  0  0  0  0  0  0  0  0  0  0
    1.6701  -17.4911  -90.1032 C   0  0  0  0  0  0  0  0  0  0  0  0
    0.4162  -18.0960  -89.9763 C   0  0  0  0  0  0  0  0  0  0  0  0
   -0.4473  -18.2490  -90.9807 N   0  0  0  0  0  0  0  0  0  0  0  0
    0.0296  -18.5756  -88.7516 N   0  0  0  0  0  0  0  0  0  0  0  0
    0.8531  -18.4671  -87.6665 C   0  0  0  0  0  0  0  0  0  0  0  0
    2.0703  -17.8715  -87.7569 N   0  0  0  0  0  0  0  0  0  0  0  0
    0.1137  -16.3109  -99.5352 O   0  5  0  0  0  0  0  0  0  0  0  0
    2.7015  -15.5042 -100.7705 O   0  0  0  0  0  0  0  0  0  0  0  0
    1.2252  -19.1375  -94.4743 S   0  0  0  0  0  0  0  0  0  0  0  0
    2.0572  -18.6398  -93.1643 C   0  0  0  0  0  0  0  0  0  0  0  0
    0.1874  -14.1901  -98.3418 O   0  0  0  0  0  0  0  0  0  0  0  0
    4.6214  -15.4881  -99.1592 O   0  5  0  0  0  0  0  0  0  0  0  0
    1.5865  -17.4767  -92.5850 N   0  0  0  0  0  0  0  0  0  0  0  0
    2.2876  -15.8733  -98.3372 O   0  0  0  0  0  0  0  0  0  0  0  0
    3.0168  -13.5854  -99.2753 O   0  0  0  0  0  0  0  0  0  0  0  0
    0.4959  -17.0413  -93.2968 C   0  0  1  0  0  0  0  0  0  0  0  0
    0.2145  -17.9056  -94.3665 C   0  0  2  0  0  0  0  0  0  0  0  0
   -0.8349  -17.9545  -95.4494 C   0  0  0  0  0  0  0  0  0  0  0  0
   -0.8207  -16.6779  -96.2969 C   0  0  0  0  0  0  0  0  0  0  0  0
    0.4130  -16.5899  -96.9991 O   0  0  0  0  0  0  0  0  0  0  0  0
  1 11  1  0  0  0  0
  3 13  1  6  0  0  0
  3 17  2  0  0  0  0
  3 20  1  0  0  0  0
  3 26  1  0  0  0  0
  4 14  1  6  0  0  0
  4 18  1  0  0  0  0
  4 21  2  0  0  0  0
  4 20  1  0  0  0  0
  5 19  1  0  0  0  0
  5  7  1  0  0  0  0
  6  7  2  0  0  0  0
  6 12  1  0  0  0  0
  7  8  1  0  0  0  0
  8  9  1  0  0  0  0
  8 10  2  0  0  0  0
 10 11  1  0  0  0  0
 11 12  2  0  0  0  0
 15 23  1  0  0  0  0
 15 16  1  0  0  0  0
 16 19  1  0  0  0  0
 19 22  1  0  0  0  0
 22  2  1  1  0  0  0
 22 23  1  0  0  0  0
 23 24  1  1  0  0  0
 24 25  1  0  0  0  0
 25 26  1  0  0  0  0
M  CHG  2  13  -1  18  -1
M  END
>  <CHROM.1>
72.68076802,-83.47844159,156.80822508,-61.44989150,-122.54140421,64.96206407
162.34243094,-79.45276399,1.25451235,-16.84370283,-94.67966924,-1.68229247
-0.32968846,-1.32633762

>  <Name>
ligand

>  <RI>
0

>  <Rbt.Current_Directory>
/home/itssahil/PROJECTS/Mol_Feturizer/New_Systems/rnas/2CKY

>  <Rbt.Executable>
rbdock ($Id: //depot/dev/client3/rdock/2013.1/src/exe/rbdock.cxx#4 $)

>  <Rbt.Library>
libRbt.so (2013.1, Build901 2013/11/27)

>  <Rbt.Parameter_File>
/export/apps/rDock/src/rDock_2013.1_src/data/scripts/dock_solv.prm

>  <Rbt.Receptor>
prm/pocket_docking_2.prm

>  <SCORE>
-18.3712

>  <SCORE.INTER>
-13.9443

>  <SCORE.INTER.CONST>
1

>  <SCORE.INTER.POLAR>
0

>  <SCORE.INTER.ROT>
8

>  <SCORE.INTER.SOLV>
9.5155

>  <SCORE.INTER.VDW>
-21.4014

>  <SCORE.INTER.norm>
-0.536318

>  <SCORE.INTRA>
-4.42696

>  <SCORE.INTRA.DIHEDRAL>
-10.0256

>  <SCORE.INTRA.DIHEDRAL.0>
16.4846

>  <SCORE.INTRA.POLAR>
0

>  <SCORE.INTRA.POLAR.0>
0

>  <SCORE.INTRA.REPUL>
0

>  <SCORE.INTRA.REPUL.0>
0

>  <SCORE.INTRA.SOLV>
4.81002

>  <SCORE.INTRA.SOLV.lig_0>
-82.6983

>  <SCORE.INTRA.VDW>
-1.81915

>  <SCORE.INTRA.VDW.0>
-2.11466

>  <SCORE.INTRA.norm>
-0.170268

>  <SCORE.RESTR>
0

>  <SCORE.RESTR.CAVITY>
0

>  <SCORE.RESTR.norm>
0

>  <SCORE.SYSTEM>
0

>  <SCORE.SYSTEM.CONST>
0

>  <SCORE.SYSTEM.DIHEDRAL>
0

>  <SCORE.SYSTEM.SOLV>
0

>  <SCORE.SYSTEM.norm>
0

>  <SCORE.heavy>
26

>  <SCORE.norm>
-0.706586

>  <RMSD>
2.186

$$$$
ligand
 OpenBabel11021811423D
libRbt.so/2013.1/901 2013/11/27
 26 27  0  0  0  0  0  0  0  0999 V2000
    0.2866  -19.1770  -86.0054 C   0  0  0  0  0  0  0  0  0  0  0  0
    2.1901  -17.3533  -94.2660 C   0  0  0  0  0  0  0  0  0  0  0  0
    0.7332  -16.7576  -97.7170 P   0  0  2  0  0  0  0  0  0  0  0  0
    1.6566  -14.1540  -97.9150 P   0  0  2  0  0  0  0  0  0  0  0  0
    1.2386  -17.1121  -91.2681 C   0  0  0  0  0  0  0  0  0  0  0  0
   -0.2367  -18.0462  -89.5041 C   0  0  0  0  0  0  0  0  0  0  0  0
    1.0349  -17.6238  -89.8697 C   0  0  0  0  0  0  0  0  0  0  0  0
    2.0769  -17.7428  -88.9454 C   0  0  0  0  0  0  0  0  0  0  0  0
    3.3380  -17.3837  -89.1874 N   0  0  0  0  0  0  0  0  0  0  0  0
    1.8084  -18.2535  -87.7019 N   0  0  0  0  0  0  0  0  0  0  0  0
    0.5427  -18.6426  -87.3642 C   0  0  0  0  0  0  0  0  0  0  0  0
   -0.4860  -18.5522  -88.2464 N   0  0  0  0  0  0  0  0  0  0  0  0
    2.0267  -17.4441  -97.3247 O   0  5  0  0  0  0  0  0  0  0  0  0
    1.7815  -12.9622  -96.9927 O   0  0  0  0  0  0  0  0  0  0  0  0
   -0.9490  -19.5455  -93.4272 S   0  0  0  0  0  0  0  0  0  0  0  0
   -0.4438  -18.7339  -92.1072 C   0  0  0  0  0  0  0  0  0  0  0  0
    0.5916  -16.9401  -99.2258 O   0  0  0  0  0  0  0  0  0  0  0  0
    0.9039  -13.8071  -99.1833 O   0  5  0  0  0  0  0  0  0  0  0  0
    0.6684  -17.9378  -92.3056 N   0  0  0  0  0  0  0  0  0  0  0  0
    0.7981  -15.2512  -97.1403 O   0  0  0  0  0  0  0  0  0  0  0  0
    3.0508  -14.6502  -98.2405 O   0  0  0  0  0  0  0  0  0  0  0  0
    1.0585  -18.0466  -93.6176 C   0  0  1  0  0  0  0  0  0  0  0  0
    0.2139  -18.9174  -94.3239 C   0  0  2  0  0  0  0  0  0  0  0  0
    0.1354  -19.4023  -95.7505 C   0  0  0  0  0  0  0  0  0  0  0  0
   -0.8995  -18.6065  -96.5531 C   0  0  0  0  0  0  0  0  0  0  0  0
   -0.4570  -17.2622  -96.6941 O   0  0  0  0  0  0  0  0  0  0  0  0
  1 11  1  0  0  0  0
  3 13  1  1  0  0  0
  3 17  2  0  0  0  0
  3 20  1  0  0  0  0
  3 26  1  0  0  0  0
  4 14  1  1  0  0  0
  4 18  1  0  0  0  0
  4 21  2  0  0  0  0
  4 20  1  0  0  0  0
  5 19  1  0  0  0  0
  5  7  1  0  0  0  0
  6  7  2  0  0  0  0
  6 12  1  0  0  0  0
  7  8  1  0  0  0  0
  8  9  1  0  0  0  0
  8 10  2  0  0  0  0
 10 11  1  0  0  0  0
 11 12  2  0  0  0  0
 15 23  1  0  0  0  0
 15 16  1  0  0  0  0
 16 19  1  0  0  0  0
 19 22  1  0  0  0  0
 22  2  1  6  0  0  0
 22 23  1  0  0  0  0
 23 24  1  6  0  0  0
 24 25  1  0  0  0  0
 25 26  1  0  0  0  0
M  CHG  2  13  -1  18  -1
M  END
>  <CHROM.1>
78.41634274,28.71427712,-47.02688359,-167.50664301,81.59486094,66.72994954
75.35176329,-61.46509625,0.84219769,-17.17647569,-94.06046056,-1.65090270
-0.96999281,-1.32488915

>  <Name>
ligand

>  <RI>
0

>  <Rbt.Current_Directory>
/home/itssahil/PROJECTS/Mol_Feturizer/New_Systems/rnas/2CKY

>  <Rbt.Executable>
rbdock ($Id: //depot/dev/client3/rdock/2013.1/src/exe/rbdock.cxx#4 $)

>  <Rbt.Library>
libRbt.so (2013.1, Build901 2013/11/27)

>  <Rbt.Parameter_File>
/export/apps/rDock/src/rDock_2013.1_src/data/scripts/dock_solv.prm

>  <Rbt.Receptor>
prm/pocket_docking_3.prm

>  <SCORE>
-16.8521

>  <SCORE.INTER>
-13.0449

>  <SCORE.INTER.CONST>
1

>  <SCORE.INTER.POLAR>
0

>  <SCORE.INTER.ROT>
8

>  <SCORE.INTER.SOLV>
13.3462

>  <SCORE.INTER.VDW>
-22.0787

>  <SCORE.INTER.norm>
-0.501726

>  <SCORE.INTRA>
-3.80722

>  <SCORE.INTRA.DIHEDRAL>
-9.60269

>  <SCORE.INTRA.DIHEDRAL.0>
16.4846

>  <SCORE.INTRA.POLAR>
0

>  <SCORE.INTRA.POLAR.0>
0

>  <SCORE.INTRA.REPUL>
0

>  <SCORE.INTRA.REPUL.0>
0

>  <SCORE.INTRA.SOLV>
3.9754

>  <SCORE.INTRA.SOLV.lig_0>
-82.6983

>  <SCORE.INTRA.VDW>
-0.993578

>  <SCORE.INTRA.VDW.0>
-2.11466

>  <SCORE.INTRA.norm>
-0.146432

>  <SCORE.RESTR>
0

>  <SCORE.RESTR.CAVITY>
0

>  <SCORE.RESTR.norm>
0

>  <SCORE.SYSTEM>
0

>  <SCORE.SYSTEM.CONST>
0

>  <SCORE.SYSTEM.DIHEDRAL>
0

>  <SCORE.SYSTEM.SOLV>
0

>  <SCORE.SYSTEM.norm>
0

>  <SCORE.heavy>
26

>  <SCORE.norm>
-0.648158

>  <RMSD>
2.188

$$$$
ligand
 OpenBabel11021811423D
libRbt.so/2013.1/901 2013/11/27
 26 27  0  0  0  0  0  0  0  0999 V2000
    0.3043  -19.1053  -86.3945 C   0  0  0  0  0  0  0  0  0  0  0  0
    0.6532  -15.5190  -93.3649 C   0  0  0  0  0  0  0  0  0  0  0  0
   -0.5507  -15.3349  -98.8194 P   0  0  2  0  0  0  0  0  0  0  0  0
    1.2293  -13.3719  -99.6251 P   0  0  2  0  0  0  0  0  0  0  0  0
    2.4908  -16.9438  -91.2332 C   0  0  0  0  0  0  0  0  0  0  0  0
    2.6163  -17.5000  -88.8175 C   0  0  0  0  0  0  0  0  0  0  0  0
    1.8836  -17.5445  -89.9965 C   0  0  0  0  0  0  0  0  0  0  0  0
    0.5981  -18.0934  -89.9716 C   0  0  0  0  0  0  0  0  0  0  0  0
   -0.2015  -18.1780  -91.0352 N   0  0  0  0  0  0  0  0  0  0  0  0
    0.1085  -18.5880  -88.7905 N   0  0  0  0  0  0  0  0  0  0  0  0
    0.8608  -18.5481  -87.6504 C   0  0  0  0  0  0  0  0  0  0  0  0
    2.1068  -18.0077  -87.6416 N   0  0  0  0  0  0  0  0  0  0  0  0
   -1.1199  -15.8761 -100.1159 O   0  5  0  0  0  0  0  0  0  0  0  0
    0.0977  -13.0149 -100.5625 O   0  0  0  0  0  0  0  0  0  0  0  0
    1.5757  -19.2129  -94.2962 S   0  0  0  0  0  0  0  0  0  0  0  0
    2.2659  -18.7857  -92.8829 C   0  0  0  0  0  0  0  0  0  0  0  0
   -1.5417  -14.2865  -98.3207 O   0  0  0  0  0  0  0  0  0  0  0  0
    2.5685  -13.3694 -100.3337 O   0  5  0  0  0  0  0  0  0  0  0  0
    2.0027  -17.4913  -92.4763 N   0  0  0  0  0  0  0  0  0  0  0  0
    0.9624  -14.8611  -99.1229 O   0  0  0  0  0  0  0  0  0  0  0  0
    1.2289  -12.3785  -98.4810 O   0  0  0  0  0  0  0  0  0  0  0  0
    1.1922  -16.8935  -93.4097 C   0  0  1  0  0  0  0  0  0  0  0  0
    0.8958  -17.7770  -94.4595 C   0  0  2  0  0  0  0  0  0  0  0  0
    0.0695  -17.6962  -95.7193 C   0  0  0  0  0  0  0  0  0  0  0  0
    0.4893  -16.5037  -96.5853 C   0  0  0  0  0  0  0  0  0  0  0  0
   -0.1237  -16.6089  -97.8644 O   0  0  0  0  0  0  0  0  0  0  0  0
  1 11  1  0  0  0  0
  3 13  1  6  0  0  0
  3 17  2  0  0  0  0
  3 20  1  0  0  0  0
  3 26  1  0  0  0  0
  4 14  1  6  0  0  0
  4 18  1  0  0  0  0
  4 21  2  0  0  0  0
  4 20  1  0  0  0  0
  5 19  1  0  0  0  0
  5  7  1  0  0  0  0
  6  7  2  0  0  0  0
  6 12  1  0  0  0  0
  7  8  1  0  0  0  0
  8  9  1  0  0  0  0
  8 10  2  0  0  0  0
 10 11  1  0  0  0  0
 11 12  2  0  0  0  0
 15 23  1  0  0  0  0
 15 16  1  0  0  0  0
 16 19  1  0  0  0  0
 19 22  1  0  0  0  0
 22  2  1  1  0  0  0
 22 23  1  0  0  0  0
 23 24  1  1  0  0  0
 24 25  1  0  0  0  0
 25 26  1  0  0  0  0
M  CHG  2  13  -1  18  -1
M  END
>  <CHROM.1>
88.75230775,-68.07927786,154.71371899,-37.90879091,-125.84233725,168.89075111
149.77979611,177.77060235,0.81763922,-16.41241792,-94.82393171,-1.41228017
-1.07777107,-1.04881274

>  <Name>
ligand

>  <RI>
0

>  <Rbt.Current_Directory>
/home/itssahil/PROJECTS/Mol_Feturizer/New_Systems/rnas/2CKY

>  <Rbt.Executable>
rbdock ($Id: //depot/dev/client3/rdock/2013.1/src/exe/rbdock.cxx#4 $)

>  <Rbt.Library>
libRbt.so (2013.1, Build901 2013/11/27)

>  <Rbt.Parameter_File>
/export/apps/rDock/src/rDock_2013.1_src/data/scripts/dock_solv.prm

>  <Rbt.Receptor>
prm/pocket_docking_2.prm

>  <SCORE>
-16.4655

>  <SCORE.INTER>
-13.5903

>  <SCORE.INTER.CONST>
1

>  <SCORE.INTER.POLAR>
0

>  <SCORE.INTER.ROT>
8

>  <SCORE.INTER.SOLV>
8.75387

>  <SCORE.INTER.VDW>
-20.9115

>  <SCORE.INTER.norm>
-0.522703

>  <SCORE.INTRA>
-2.89136

>  <SCORE.INTRA.DIHEDRAL>
-6.30769

>  <SCORE.INTRA.DIHEDRAL.0>
16.4846

>  <SCORE.INTRA.POLAR>
0

>  <SCORE.INTRA.POLAR.0>
0

>  <SCORE.INTRA.REPUL>
0

>  <SCORE.INTRA.REPUL.0>
0

>  <SCORE.INTRA.SOLV>
3.60247

>  <SCORE.INTRA.SOLV.lig_0>
-82.6983

>  <SCORE.INTRA.VDW>
-1.53875

>  <SCORE.INTRA.VDW.0>
-2.11466

>  <SCORE.INTRA.norm>
-0.111206

>  <SCORE.RESTR>
0.0161235

>  <SCORE.RESTR.CAVITY>
0.0161235

>  <SCORE.RESTR.norm>
0.000620136

>  <SCORE.SYSTEM>
0

>  <SCORE.SYSTEM.CONST>
0

>  <SCORE.SYSTEM.DIHEDRAL>
0

>  <SCORE.SYSTEM.SOLV>
0

>  <SCORE.SYSTEM.norm>
0

>  <SCORE.heavy>
26

>  <SCORE.norm>
-0.63329

>  <RMSD>
2.197

$$$$
ligand
 OpenBabel11021811423D
libRbt.so/2013.1/901 2013/11/27
 26 27  0  0  0  0  0  0  0  0999 V2000
    0.0520  -19.0285  -86.0273 C   0  0  0  0  0  0  0  0  0  0  0  0
    1.1629  -18.2081  -93.9564 C   0  0  0  0  0  0  0  0  0  0  0  0
    0.1145  -13.3273  -98.1921 P   0  0  2  0  0  0  0  0  0  0  0  0
   -1.3083  -14.7559 -100.0908 P   0  0  2  0  0  0  0  0  0  0  0  0
    2.3305  -17.5988  -91.0899 C   0  0  0  0  0  0  0  0  0  0  0  0
    0.5405  -18.5863  -89.6823 C   0  0  0  0  0  0  0  0  0  0  0  0
    1.7641  -17.9315  -89.7381 C   0  0  0  0  0  0  0  0  0  0  0  0
    2.4389  -17.6600  -88.5443 C   0  0  0  0  0  0  0  0  0  0  0  0
    3.6225  -17.0500  -88.4745 N   0  0  0  0  0  0  0  0  0  0  0  0
    1.8642  -18.0301  -87.3560 N   0  0  0  0  0  0  0  0  0  0  0  0
    0.6496  -18.6557  -87.3317 C   0  0  0  0  0  0  0  0  0  0  0  0
   -0.0219  -18.9452  -88.4761 N   0  0  0  0  0  0  0  0  0  0  0  0
    0.0954  -11.9099  -97.6549 O   0  5  0  0  0  0  0  0  0  0  0  0
   -0.4115  -14.4499 -101.2693 O   0  0  0  0  0  0  0  0  0  0  0  0
    0.2359  -14.6493  -92.6004 S   0  0  0  0  0  0  0  0  0  0  0  0
    1.1332  -15.4648  -91.5114 C   0  0  0  0  0  0  0  0  0  0  0  0
    1.4726  -13.5127  -98.8639 O   0  0  0  0  0  0  0  0  0  0  0  0
   -2.7596  -14.8840 -100.5070 O   0  5  0  0  0  0  0  0  0  0  0  0
    1.5015  -16.7389  -91.9003 N   0  0  0  0  0  0  0  0  0  0  0  0
   -1.2088  -13.5128  -99.0979 O   0  0  0  0  0  0  0  0  0  0  0  0
   -0.8230  -16.0380  -99.4455 O   0  0  0  0  0  0  0  0  0  0  0  0
    0.9953  -16.9795  -93.1539 C   0  0  1  0  0  0  0  0  0  0  0  0
    0.2787  -15.8701  -93.6294 C   0  0  2  0  0  0  0  0  0  0  0  0
   -0.4644  -15.5470  -94.9022 C   0  0  0  0  0  0  0  0  0  0  0  0
    0.3792  -14.6681  -95.8318 C   0  0  0  0  0  0  0  0  0  0  0  0
   -0.3762  -14.3469  -96.9933 O   0  0  0  0  0  0  0  0  0  0  0  0
  1 11  1  0  0  0  0
  3 13  1  1  0  0  0
  3 17  2  0  0  0  0
  3 20  1  0  0  0  0
  3 26  1  0  0  0  0
  4 14  1  6  0  0  0
  4 18  1  0  0  0  0
  4 21  2  0  0  0  0
  4 20  1  0  0  0  0
  5 19  1  0  0  0  0
  5  7  1  0  0  0  0
  6  7  2  0  0  0  0
  6 12  1  0  0  0  0
  7  8  1  0  0  0  0
  8  9  1  0  0  0  0
  8 10  2  0  0  0  0
 10 11  1  0  0  0  0
 11 12  2  0  0  0  0
 15 23  1  0  0  0  0
 15 16  1  0  0  0  0
 16 19  1  0  0  0  0
 19 22  1  0  0  0  0
 22  2  1  6  0  0  0
 22 23  1  0  0  0  0
 23 24  1  6  0  0  0
 24 25  1  0  0  0  0
 25 26  1  0  0  0  0
M  CHG  2  13  -1  18  -1
M  END
>  <CHROM.1>
164.96146857,60.20155941,59.88674596,-75.08739867,78.95338084,-177.82243741
175.03282585,-70.89381600,0.35249812,-15.76710178,-94.36706846,1.25365808
0.96886064,2.17811722

>  <Name>
ligand

>  <RI>
0

>  <Rbt.Current_Directory>
/home/itssahil/PROJECTS/Mol_Feturizer/New_Systems/rnas/2CKY

>  <Rbt.Executable>
rbdock ($Id: //depot/dev/client3/rdock/2013.1/src/exe/rbdock.cxx#4 $)

>  <Rbt.Library>
libRbt.so (2013.1, Build901 2013/11/27)

>  <Rbt.Parameter_File>
/export/apps/rDock/src/rDock_2013.1_src/data/scripts/dock_solv.prm

>  <Rbt.Receptor>
prm/pocket_docking_3.prm

>  <SCORE>
-20.6708

>  <SCORE.INTER>
-14.0527

>  <SCORE.INTER.CONST>
1

>  <SCORE.INTER.POLAR>
0

>  <SCORE.INTER.ROT>
8

>  <SCORE.INTER.SOLV>
18.9791

>  <SCORE.INTER.VDW>
-24.6282

>  <SCORE.INTER.norm>
-0.54049

>  <SCORE.INTRA>
-6.61811

>  <SCORE.INTRA.DIHEDRAL>
-10.3746

>  <SCORE.INTRA.DIHEDRAL.0>
16.4846

>  <SCORE.INTRA.POLAR>
0

>  <SCORE.INTRA.POLAR.0>
0

>  <SCORE.INTRA.REPUL>
0

>  <SCORE.INTRA.REPUL.0>
0

>  <SCORE.INTRA.SOLV>
-0.172512

>  <SCORE.INTRA.SOLV.lig_0>
-82.6983

>  <SCORE.INTRA.VDW>
-1.34457

>  <SCORE.INTRA.VDW.0>
-2.11466

>  <SCORE.INTRA.norm>
-0.254543

>  <SCORE.RESTR>
0

>  <SCORE.RESTR.CAVITY>
0

>  <SCORE.RESTR.norm>
0

>  <SCORE.SYSTEM>
0

>  <SCORE.SYSTEM.CONST>
0

>  <SCORE.SYSTEM.DIHEDRAL>
0

>  <SCORE.SYSTEM.SOLV>
0

>  <SCORE.SYSTEM.norm>
0

>  <SCORE.heavy>
26

>  <SCORE.norm>
-0.795032

>  <RMSD>
2.222

$$$$
ligand
 OpenBabel11021811423D
libRbt.so/2013.1/901 2013/11/27
 26 27  0  0  0  0  0  0  0  0999 V2000
   -0.1663  -19.1536  -85.7128 C   0  0  0  0  0  0  0  0  0  0  0  0
   -0.2488  -18.6520  -92.9664 C   0  0  0  0  0  0  0  0  0  0  0  0
    0.8237  -16.4588  -97.5282 P   0  0  2  0  0  0  0  0  0  0  0  0
   -0.0359  -15.4548  -99.9621 P   0  0  2  0  0  0  0  0  0  0  0  0
    1.9638  -17.8384  -90.8701 C   0  0  0  0  0  0  0  0  0  0  0  0
    0.2651  -18.8819  -89.3916 C   0  0  0  0  0  0  0  0  0  0  0  0
    1.4330  -18.1375  -89.4962 C   0  0  0  0  0  0  0  0  0  0  0  0
    2.0911  -17.7469  -88.3264 C   0  0  0  0  0  0  0  0  0  0  0  0
    3.2234  -17.0432  -88.3027 N   0  0  0  0  0  0  0  0  0  0  0  0
    1.5541  -18.0931  -87.1135 N   0  0  0  0  0  0  0  0  0  0  0  0
    0.3927  -18.8095  -87.0419 C   0  0  0  0  0  0  0  0  0  0  0  0
   -0.2605  -19.2150  -88.1616 N   0  0  0  0  0  0  0  0  0  0  0  0
    2.2464  -15.9369  -97.5677 O   0  5  0  0  0  0  0  0  0  0  0  0
    1.4245  -15.4658 -100.3541 O   0  0  0  0  0  0  0  0  0  0  0  0
    0.2563  -14.7797  -92.6300 S   0  0  0  0  0  0  0  0  0  0  0  0
    1.2523  -15.5804  -91.6186 C   0  0  0  0  0  0  0  0  0  0  0  0
    0.8854  -17.9079  -98.0037 O   0  0  0  0  0  0  0  0  0  0  0  0
   -0.7420  -14.2094 -100.4582 O   0  5  0  0  0  0  0  0  0  0  0  0
    1.1384  -16.9572  -91.6610 N   0  0  0  0  0  0  0  0  0  0  0  0
   -0.0877  -15.4252  -98.3691 O   0  0  0  0  0  0  0  0  0  0  0  0
   -0.6885  -16.6996 -100.5281 O   0  0  0  0  0  0  0  0  0  0  0  0
    0.1811  -17.2907  -92.5872 C   0  0  1  0  0  0  0  0  0  0  0  0
   -0.3641  -16.1431  -93.1840 C   0  0  2  0  0  0  0  0  0  0  0  0
   -1.4052  -15.8860  -94.2454 C   0  0  0  0  0  0  0  0  0  0  0  0
   -1.0537  -16.6003  -95.5548 C   0  0  0  0  0  0  0  0  0  0  0  0
    0.1698  -16.0824  -96.0625 O   0  0  0  0  0  0  0  0  0  0  0  0
  1 11  1  0  0  0  0
  3 13  1  6  0  0  0
  3 17  2  0  0  0  0
  3 20  1  0  0  0  0
  3 26  1  0  0  0  0
  4 14  1  6  0  0  0
  4 18  1  0  0  0  0
  4 21  2  0  0  0  0
  4 20  1  0  0  0  0
  5 19  1  0  0  0  0
  5  7  1  0  0  0  0
  6  7  2  0  0  0  0
  6 12  1  0  0  0  0
  7  8  1  0  0  0  0
  8  9  1  0  0  0  0
  8 10  2  0  0  0  0
 10 11  1  0  0  0  0
 11 12  2  0  0  0  0
 15 23  1  0  0  0  0
 15 16  1  0  0  0  0
 16 19  1  0  0  0  0
 19 22  1  0  0  0  0
 22  2  1  6  0  0  0
 22 23  1  0  0  0  0
 23 24  1  6  0  0  0
 24 25  1  0  0  0  0
 25 26  1  0  0  0  0
M  CHG  2  13  -1  18  -1
M  END
>  <CHROM.1>
76.44176059,87.77308122,67.11570384,-48.06369533,122.99113363,-62.82519389
-173.13601915,-168.32596831,0.50935261,-16.72512476,-94.04158386,1.46615202
0.89218473,1.86499157

>  <Name>
ligand

>  <RI>
0

>  <Rbt.Current_Directory>
/home/itssahil/PROJECTS/Mol_Feturizer/New_Systems/rnas/2CKY

>  <Rbt.Executable>
rbdock ($Id: //depot/dev/client3/rdock/2013.1/src/exe/rbdock.cxx#4 $)

>  <Rbt.Library>
libRbt.so (2013.1, Build901 2013/11/27)

>  <Rbt.Parameter_File>
/export/apps/rDock/src/rDock_2013.1_src/data/scripts/dock_solv.prm

>  <Rbt.Receptor>
prm/pocket_docking_3.prm

>  <SCORE>
-21.3645

>  <SCORE.INTER>
-14.0176

>  <SCORE.INTER.CONST>
1

>  <SCORE.INTER.POLAR>
0

>  <SCORE.INTER.ROT>
8

>  <SCORE.INTER.SOLV>
19.9212

>  <SCORE.INTER.VDW>
-24.9188

>  <SCORE.INTER.norm>
-0.539138

>  <SCORE.INTRA>
-7.34689

>  <SCORE.INTRA.DIHEDRAL>
-10.6052

>  <SCORE.INTRA.DIHEDRAL.0>
16.4846

>  <SCORE.INTRA.POLAR>
0

>  <SCORE.INTRA.POLAR.0>
0

>  <SCORE.INTRA.REPUL>
0

>  <SCORE.INTRA.REPUL.0>
0

>  <SCORE.INTRA.SOLV>
-0.443881

>  <SCORE.INTRA.SOLV.lig_0>
-82.6983

>  <SCORE.INTRA.VDW>
-1.82237

>  <SCORE.INTRA.VDW.0>
-2.11466

>  <SCORE.INTRA.norm>
-0.282573

>  <SCORE.RESTR>
0

>  <SCORE.RESTR.CAVITY>
0

>  <SCORE.RESTR.norm>
0

>  <SCORE.SYSTEM>
0

>  <SCORE.SYSTEM.CONST>
0

>  <SCORE.SYSTEM.DIHEDRAL>
0

>  <SCORE.SYSTEM.SOLV>
0

>  <SCORE.SYSTEM.norm>
0

>  <SCORE.heavy>
26

>  <SCORE.norm>
-0.821711

>  <RMSD>
2.264

$$$$
ligand
 OpenBabel11021811423D
libRbt.so/2013.1/901 2013/11/27
 26 27  0  0  0  0  0  0  0  0999 V2000
    0.0967  -19.2247  -86.1857 C   0  0  0  0  0  0  0  0  0  0  0  0
    0.4373  -15.6299  -92.5742 C   0  0  0  0  0  0  0  0  0  0  0  0
   -0.3763  -15.7892  -98.8700 P   0  0  2  0  0  0  0  0  0  0  0  0
    1.0074  -13.4263  -99.2855 P   0  0  2  0  0  0  0  0  0  0  0  0
    2.5829  -17.3073  -90.9824 C   0  0  0  0  0  0  0  0  0  0  0  0
    2.5783  -17.7912  -88.5480 C   0  0  0  0  0  0  0  0  0  0  0  0
    1.8972  -17.8436  -89.7572 C   0  0  0  0  0  0  0  0  0  0  0  0
    0.5902  -18.3393  -89.7744 C   0  0  0  0  0  0  0  0  0  0  0  0
   -0.1644  -18.4255  -90.8702 N   0  0  0  0  0  0  0  0  0  0  0  0
    0.0287  -18.7761  -88.6025 N   0  0  0  0  0  0  0  0  0  0  0  0
    0.7309  -18.7303  -87.4311 C   0  0  0  0  0  0  0  0  0  0  0  0
    1.9966  -18.2404  -87.3818 N   0  0  0  0  0  0  0  0  0  0  0  0
    0.6899  -16.6157  -99.5613 O   0  5  0  0  0  0  0  0  0  0  0  0
    2.1210  -14.1520 -100.0065 O   0  0  0  0  0  0  0  0  0  0  0  0
    1.3357  -19.0500  -94.2650 S   0  0  0  0  0  0  0  0  0  0  0  0
    2.1947  -18.8411  -92.8958 C   0  0  0  0  0  0  0  0  0  0  0  0
   -1.4952  -15.5935  -99.8897 O   0  0  0  0  0  0  0  0  0  0  0  0
    1.5330  -12.2736  -98.4545 O   0  5  0  0  0  0  0  0  0  0  0  0
    1.9502  -17.6535  -92.2326 N   0  0  0  0  0  0  0  0  0  0  0  0
    0.3478  -14.4726  -98.2799 O   0  0  0  0  0  0  0  0  0  0  0  0
    0.0167  -12.9308 -100.3194 O   0  0  0  0  0  0  0  0  0  0  0  0
    1.0056  -16.9450  -92.9335 C   0  0  1  0  0  0  0  0  0  0  0  0
    0.5983  -17.6454  -94.0798 C   0  0  2  0  0  0  0  0  0  0  0  0
   -0.3902  -17.3889  -95.1905 C   0  0  0  0  0  0  0  0  0  0  0  0
    0.2797  -16.6999  -96.3841 C   0  0  0  0  0  0  0  0  0  0  0  0
   -0.6887  -16.4646  -97.3990 O   0  0  0  0  0  0  0  0  0  0  0  0
  1 11  1  0  0  0  0
  3 13  1  6  0  0  0
  3 17  2  0  0  0  0
  3 20  1  0  0  0  0
  3 26  1  0  0  0  0
  4 14  1  6  0  0  0
  4 18  1  0  0  0  0
  4 21  2  0  0  0  0
  4 20  1  0  0  0  0
  5 19  1  0  0  0  0
  5  7  1  0  0  0  0
  6  7  2  0  0  0  0
  6 12  1  0  0  0  0
  7  8  1  0  0  0  0
  8  9  1  0  0  0  0
  8 10  2  0  0  0  0
 10 11  1  0  0  0  0
 11 12  2  0  0  0  0
 15 23  1  0  0  0  0
 15 16  1  0  0  0  0
 16 19  1  0  0  0  0
 19 22  1  0  0  0  0
 22  2  1  1  0  0  0
 22 23  1  0  0  0  0
 23 24  1  1  0  0  0
 24 25  1  0  0  0  0
 25 26  1  0  0  0  0
M  CHG  2  13  -1  18  -1
M  END
>  <CHROM.1>
63.92240928,-85.21205859,167.12484726,-63.06336843,-88.02165697,-179.37041958
-177.84360604,56.68850286,0.75095605,-16.59130483,-94.61778226,1.41730411
1.11918218,2.07571338

>  <Name>
ligand

>  <RI>
0

>  <Rbt.Current_Directory>
/home/itssahil/PROJECTS/Mol_Feturizer/New_Systems/rnas/2CKY

>  <Rbt.Executable>
rbdock ($Id: //depot/dev/client3/rdock/2013.1/src/exe/rbdock.cxx#4 $)

>  <Rbt.Library>
libRbt.so (2013.1, Build901 2013/11/27)

>  <Rbt.Parameter_File>
/export/apps/rDock/src/rDock_2013.1_src/data/scripts/dock_solv.prm

>  <Rbt.Receptor>
prm/pocket_docking_2.prm

>  <SCORE>
-18.8404

>  <SCORE.INTER>
-14.3081

>  <SCORE.INTER.CONST>
1

>  <SCORE.INTER.POLAR>
0

>  <SCORE.INTER.ROT>
8

>  <SCORE.INTER.SOLV>
10.6057

>  <SCORE.INTER.VDW>
-22.0073

>  <SCORE.INTER.norm>
-0.550312

>  <SCORE.INTRA>
-4.54804

>  <SCORE.INTRA.DIHEDRAL>
-11.623

>  <SCORE.INTRA.DIHEDRAL.0>
16.4846

>  <SCORE.INTRA.POLAR>
0

>  <SCORE.INTRA.POLAR.0>
0

>  <SCORE.INTRA.REPUL>
0

>  <SCORE.INTRA.REPUL.0>
0

>  <SCORE.INTRA.SOLV>
5.17192

>  <SCORE.INTRA.SOLV.lig_0>
-82.6983

>  <SCORE.INTRA.VDW>
-1.32248

>  <SCORE.INTRA.VDW.0>
-2.11466

>  <SCORE.INTRA.norm>
-0.174925

>  <SCORE.RESTR>
0.0157286

>  <SCORE.RESTR.CAVITY>
0.0157286

>  <SCORE.RESTR.norm>
0.000604945

>  <SCORE.SYSTEM>
0

>  <SCORE.SYSTEM.CONST>
0

>  <SCORE.SYSTEM.DIHEDRAL>
0

>  <SCORE.SYSTEM.SOLV>
0

>  <SCORE.SYSTEM.norm>
0

>  <SCORE.heavy>
26

>  <SCORE.norm>
-0.724632

>  <RMSD>
2.269

$$$$
ligand
 OpenBabel11021811423D
libRbt.so/2013.1/901 2013/11/27
 26 27  0  0  0  0  0  0  0  0999 V2000
    0.1727  -19.0740  -86.2390 C   0  0  0  0  0  0  0  0  0  0  0  0
    0.6567  -15.4693  -92.7733 C   0  0  0  0  0  0  0  0  0  0  0  0
   -0.0027  -15.8778  -99.0707 P   0  0  2  0  0  0  0  0  0  0  0  0
    1.0304  -13.3461  -99.5111 P   0  0  2  0  0  0  0  0  0  0  0  0
    2.6632  -17.1816  -91.0433 C   0  0  0  0  0  0  0  0  0  0  0  0
    2.6671  -17.6813  -88.6121 C   0  0  0  0  0  0  0  0  0  0  0  0
    1.9753  -17.7104  -89.8161 C   0  0  0  0  0  0  0  0  0  0  0  0
    0.6574  -18.1765  -89.8258 C   0  0  0  0  0  0  0  0  0  0  0  0
   -0.1077  -18.2384  -90.9160 N   0  0  0  0  0  0  0  0  0  0  0  0
    0.0956  -18.6082  -88.6522 N   0  0  0  0  0  0  0  0  0  0  0  0
    0.8079  -18.5859  -87.4863 C   0  0  0  0  0  0  0  0  0  0  0  0
    2.0848  -18.1250  -87.4442 N   0  0  0  0  0  0  0  0  0  0  0  0
    1.2210  -16.5971  -99.6029 O   0  5  0  0  0  0  0  0  0  0  0  0
   -0.1254  -12.9794 -100.4145 O   0  0  0  0  0  0  0  0  0  0  0  0
    1.4061  -19.0117  -94.2743 S   0  0  0  0  0  0  0  0  0  0  0  0
    2.2397  -18.7835  -92.8925 C   0  0  0  0  0  0  0  0  0  0  0  0
   -1.0254  -15.8761 -100.2038 O   0  0  0  0  0  0  0  0  0  0  0  0
    2.1756  -13.9651 -100.2864 O   0  5  0  0  0  0  0  0  0  0  0  0
    2.0447  -17.5534  -92.2934 N   0  0  0  0  0  0  0  0  0  0  0  0
    0.4928  -14.4525  -98.4971 O   0  0  0  0  0  0  0  0  0  0  0  0
    1.4878  -12.0926  -98.7932 O   0  0  0  0  0  0  0  0  0  0  0  0
    1.1597  -16.8294  -93.0537 C   0  0  1  0  0  0  0  0  0  0  0  0
    0.7438  -17.5616  -94.1768 C   0  0  2  0  0  0  0  0  0  0  0  0
   -0.1997  -17.3061  -95.3262 C   0  0  0  0  0  0  0  0  0  0  0  0
    0.5409  -16.7276  -96.5366 C   0  0  0  0  0  0  0  0  0  0  0  0
   -0.3820  -16.5124  -97.5972 O   0  0  0  0  0  0  0  0  0  0  0  0
  1 11  1  0  0  0  0
  3 13  1  6  0  0  0
  3 17  2  0  0  0  0
  3 20  1  0  0  0  0
  3 26  1  0  0  0  0
  4 14  1  6  0  0  0
  4 18  1  0  0  0  0
  4 21  2  0  0  0  0
  4 20  1  0  0  0  0
  5 19  1  0  0  0  0
  5  7  1  0  0  0  0
  6  7  2  0  0  0  0
  6 12  1  0  0  0  0
  7  8  1  0  0  0  0
  8  9  1  0  0  0  0
  8 10  2  0  0  0  0
 10 11  1  0  0  0  0
 11 12  2  0  0  0  0
 15 23  1  0  0  0  0
 15 16  1  0  0  0  0
 16 19  1  0  0  0  0
 19 22  1  0  0  0  0
 22  2  1  1  0  0  0
 22 23  1  0  0  0  0
 23 24  1  1  0  0  0
 24 25  1  0  0  0  0
 25 26  1  0  0  0  0
M  CHG  2  13  -1  18  -1
M  END
>  <CHROM.1>
68.04262546,-80.66785232,164.59728011,63.26190055,-87.41329306,179.55203387
178.92323119,48.28980756,0.89376902,-16.52839329,-94.74770066,-1.38710870
-1.25129216,-1.04355232

>  <Name>
ligand

>  <RI>
0

>  <Rbt.Current_Directory>
/home/itssahil/PROJECTS/Mol_Feturizer/New_Systems/rnas/2CKY

>  <Rbt.Executable>
rbdock ($Id: //depot/dev/client3/rdock/2013.1/src/exe/rbdock.cxx#4 $)

>  <Rbt.Library>
libRbt.so (2013.1, Build901 2013/11/27)

>  <Rbt.Parameter_File>
/export/apps/rDock/src/rDock_2013.1_src/data/scripts/dock_solv.prm

>  <Rbt.Receptor>
prm/pocket_docking_2.prm

>  <SCORE>
-20.1619

>  <SCORE.INTER>
-15.52

>  <SCORE.INTER.CONST>
1

>  <SCORE.INTER.POLAR>
0

>  <SCORE.INTER.ROT>
8

>  <SCORE.INTER.SOLV>
8.63647

>  <SCORE.INTER.VDW>
-22.1588

>  <SCORE.INTER.norm>
-0.596922

>  <SCORE.INTRA>
-4.64196

>  <SCORE.INTRA.DIHEDRAL>
-11.5162

>  <SCORE.INTRA.DIHEDRAL.0>
16.4846

>  <SCORE.INTRA.POLAR>
0

>  <SCORE.INTRA.POLAR.0>
0

>  <SCORE.INTRA.REPUL>
0

>  <SCORE.INTRA.REPUL.0>
0

>  <SCORE.INTRA.SOLV>
5.13637

>  <SCORE.INTRA.SOLV.lig_0>
-82.6983

>  <SCORE.INTRA.VDW>
-1.45202

>  <SCORE.INTRA.VDW.0>
-2.11466

>  <SCORE.INTRA.norm>
-0.178537

>  <SCORE.RESTR>
0

>  <SCORE.RESTR.CAVITY>
0

>  <SCORE.RESTR.norm>
0

>  <SCORE.SYSTEM>
0

>  <SCORE.SYSTEM.CONST>
0

>  <SCORE.SYSTEM.DIHEDRAL>
0

>  <SCORE.SYSTEM.SOLV>
0

>  <SCORE.SYSTEM.norm>
0

>  <SCORE.heavy>
26

>  <SCORE.norm>
-0.775459

>  <RMSD>
2.281

$$$$
ligand
 OpenBabel11021811423D
libRbt.so/2013.1/901 2013/11/27
 26 27  0  0  0  0  0  0  0  0999 V2000
   -0.5354  -19.6613  -86.0717 C   0  0  0  0  0  0  0  0  0  0  0  0
    2.3276  -18.3143  -93.1892 C   0  0  0  0  0  0  0  0  0  0  0  0
    1.6526  -14.8198  -98.4019 P   0  0  2  0  0  0  0  0  0  0  0  0
    0.4914  -14.5303 -100.8996 P   0  0  2  0  0  0  0  0  0  0  0  0
    2.4507  -17.1379  -90.2647 C   0  0  0  0  0  0  0  0  0  0  0  0
    2.0829  -17.7545  -87.8888 C   0  0  0  0  0  0  0  0  0  0  0  0
    1.6458  -17.8358  -89.2046 C   0  0  0  0  0  0  0  0  0  0  0  0
    0.4537  -18.5125  -89.4787 C   0  0  0  0  0  0  0  0  0  0  0  0
   -0.0701  -18.6441  -90.6978 N   0  0  0  0  0  0  0  0  0  0  0  0
   -0.2360  -19.0912  -88.4449 N   0  0  0  0  0  0  0  0  0  0  0  0
    0.2294  -19.0113  -87.1626 C   0  0  0  0  0  0  0  0  0  0  0  0
    1.3766  -18.3480  -86.8646 N   0  0  0  0  0  0  0  0  0  0  0  0
    1.4384  -13.3293  -98.2269 O   0  5  0  0  0  0  0  0  0  0  0  0
    1.9029  -14.2852 -101.3838 O   0  0  0  0  0  0  0  0  0  0  0  0
    0.1545  -15.0900  -92.6941 S   0  0  0  0  0  0  0  0  0  0  0  0
    0.8973  -15.5031  -91.3035 C   0  0  0  0  0  0  0  0  0  0  0  0
    3.1418  -15.0094  -98.6779 O   0  0  0  0  0  0  0  0  0  0  0  0
   -0.2375  -13.2336 -100.6118 O   0  5  0  0  0  0  0  0  0  0  0  0
    1.6822  -16.6381  -91.3796 N   0  0  0  0  0  0  0  0  0  0  0  0
    0.6057  -15.3246  -99.5222 O   0  0  0  0  0  0  0  0  0  0  0  0
   -0.2408  -15.3308 -101.9574 O   0  0  0  0  0  0  0  0  0  0  0  0
    1.6256  -17.1266  -92.6616 C   0  0  1  0  0  0  0  0  0  0  0  0
    0.8020  -16.3271  -93.4696 C   0  0  2  0  0  0  0  0  0  0  0  0
    0.3829  -16.3521  -94.9188 C   0  0  0  0  0  0  0  0  0  0  0  0
    1.3783  -15.5895  -95.7997 C   0  0  0  0  0  0  0  0  0  0  0  0
    0.9241  -15.6030  -97.1475 O   0  0  0  0  0  0  0  0  0  0  0  0
  1 11  1  0  0  0  0
  3 13  1  1  0  0  0
  3 17  2  0  0  0  0
  3 20  1  0  0  0  0
  3 26  1  0  0  0  0
  4 14  1  6  0  0  0
  4 18  1  0  0  0  0
  4 21  2  0  0  0  0
  4 20  1  0  0  0  0
  5 19  1  0  0  0  0
  5  7  1  0  0  0  0
  6  7  2  0  0  0  0
  6 12  1  0  0  0  0
  7  8  1  0  0  0  0
  8  9  1  0  0  0  0
  8 10  2  0  0  0  0
 10 11  1  0  0  0  0
 11 12  2  0  0  0  0
 15 23  1  0  0  0  0
 15 16  1  0  0  0  0
 16 19  1  0  0  0  0
 19 22  1  0  0  0  0
 22  2  1  6  0  0  0
 22 23  1  0  0  0  0
 23 24  1  6  0  0  0
 24 25  1  0  0  0  0
 25 26  1  0  0  0  0
M  CHG  2  13  -1  18  -1
M  END
>  <CHROM.1>
49.06989468,75.50603202,-148.30861198,46.29203288,91.57110319,-178.20662130
176.08924489,-70.73825407,0.97887111,-16.18818781,-94.50684044,1.58636298
0.44943299,1.87594775

>  <Name>
ligand

>  <RI>
0

>  <Rbt.Current_Directory>
/home/itssahil/PROJECTS/Mol_Feturizer/New_Systems/rnas/2CKY

>  <Rbt.Executable>
rbdock ($Id: //depot/dev/client3/rdock/2013.1/src/exe/rbdock.cxx#4 $)

>  <Rbt.Library>
libRbt.so (2013.1, Build901 2013/11/27)

>  <Rbt.Parameter_File>
/export/apps/rDock/src/rDock_2013.1_src/data/scripts/dock_solv.prm

>  <Rbt.Receptor>
prm/pocket_docking_3.prm

>  <SCORE>
-19.4498

>  <SCORE.INTER>
-14.4124

>  <SCORE.INTER.CONST>
1

>  <SCORE.INTER.POLAR>
0

>  <SCORE.INTER.ROT>
8

>  <SCORE.INTER.SOLV>
17.6392

>  <SCORE.INTER.VDW>
-24.4213

>  <SCORE.INTER.norm>
-0.554322

>  <SCORE.INTRA>
-5.03737

>  <SCORE.INTRA.DIHEDRAL>
-10.679

>  <SCORE.INTRA.DIHEDRAL.0>
16.4846

>  <SCORE.INTRA.POLAR>
0

>  <SCORE.INTRA.POLAR.0>
0

>  <SCORE.INTRA.REPUL>
0

>  <SCORE.INTRA.REPUL.0>
0

>  <SCORE.INTRA.SOLV>
3.98106

>  <SCORE.INTRA.SOLV.lig_0>
-82.6983

>  <SCORE.INTRA.VDW>
-1.68838

>  <SCORE.INTRA.VDW.0>
-2.11466

>  <SCORE.INTRA.norm>
-0.193745

>  <SCORE.RESTR>
0

>  <SCORE.RESTR.CAVITY>
0

>  <SCORE.RESTR.norm>
0

>  <SCORE.SYSTEM>
0

>  <SCORE.SYSTEM.CONST>
0

>  <SCORE.SYSTEM.DIHEDRAL>
0

>  <SCORE.SYSTEM.SOLV>
0

>  <SCORE.SYSTEM.norm>
0

>  <SCORE.heavy>
26

>  <SCORE.norm>
-0.748067

>  <RMSD>
2.285

$$$$
ligand
 OpenBabel11021811423D
libRbt.so/2013.1/901 2013/11/27
 26 27  0  0  0  0  0  0  0  0999 V2000
    0.4937  -18.8055  -86.5241 C   0  0  0  0  0  0  0  0  0  0  0  0
    0.0387  -15.9737  -92.3025 C   0  0  0  0  0  0  0  0  0  0  0  0
   -0.3396  -13.8847  -96.5635 P   0  0  2  0  0  0  0  0  0  0  0  0
   -0.0230  -14.0574  -99.3094 P   0  0  2  0  0  0  0  0  0  0  0  0
    2.5092  -17.8724  -91.8092 C   0  0  0  0  0  0  0  0  0  0  0  0
    0.8268  -18.7744  -90.2229 C   0  0  0  0  0  0  0  0  0  0  0  0
    2.0102  -18.0708  -90.4055 C   0  0  0  0  0  0  0  0  0  0  0  0
    2.7115  -17.6269  -89.2805 C   0  0  0  0  0  0  0  0  0  0  0  0
    3.8620  -16.9549  -89.3315 N   0  0  0  0  0  0  0  0  0  0  0  0
    2.2005  -17.8822  -88.0343 N   0  0  0  0  0  0  0  0  0  0  0  0
    1.0233  -18.5601  -87.8867 C   0  0  0  0  0  0  0  0  0  0  0  0
    0.3280  -19.0158  -88.9608 N   0  0  0  0  0  0  0  0  0  0  0  0
   -1.6575  -13.2002  -96.8679 O   0  5  0  0  0  0  0  0  0  0  0  0
    0.6463  -12.7059  -99.1987 O   0  0  0  0  0  0  0  0  0  0  0  0
    0.2206  -19.0014  -94.7851 S   0  0  0  0  0  0  0  0  0  0  0  0
    1.4758  -19.0324  -93.7461 C   0  0  0  0  0  0  0  0  0  0  0  0
    0.6155  -12.7884  -96.0988 O   0  0  0  0  0  0  0  0  0  0  0  0
   -1.4928  -13.9304  -99.6544 O   0  5  0  0  0  0  0  0  0  0  0  0
    1.5006  -17.9937  -92.8346 N   0  0  0  0  0  0  0  0  0  0  0  0
    0.0684  -14.7387  -97.8712 O   0  0  0  0  0  0  0  0  0  0  0  0
    0.7057  -14.8625 -100.3662 O   0  0  0  0  0  0  0  0  0  0  0  0
    0.4118  -17.1873  -93.0574 C   0  0  1  0  0  0  0  0  0  0  0  0
   -0.3642  -17.6712  -94.1223 C   0  0  2  0  0  0  0  0  0  0  0  0
   -1.6420  -17.2337  -94.7948 C   0  0  0  0  0  0  0  0  0  0  0  0
   -1.3555  -16.3565  -96.0182 C   0  0  0  0  0  0  0  0  0  0  0  0
   -0.6401  -15.1965  -95.6114 O   0  0  0  0  0  0  0  0  0  0  0  0
  1 11  1  0  0  0  0
  3 13  1  6  0  0  0
  3 17  2  0  0  0  0
  3 20  1  0  0  0  0
  3 26  1  0  0  0  0
  4 14  1  1  0  0  0
  4 18  1  0  0  0  0
  4 21  2  0  0  0  0
  4 20  1  0  0  0  0
  5 19  1  0  0  0  0
  5  7  1  0  0  0  0
  6  7  2  0  0  0  0
  6 12  1  0  0  0  0
  7  8  1  0  0  0  0
  8  9  1  0  0  0  0
  8 10  2  0  0  0  0
 10 11  1  0  0  0  0
 11 12  2  0  0  0  0
 15 23  1  0  0  0  0
 15 16  1  0  0  0  0
 16 19  1  0  0  0  0
 19 22  1  0  0  0  0
 22  2  1  1  0  0  0
 22 23  1  0  0  0  0
 23 24  1  1  0  0  0
 24 25  1  0  0  0  0
 25 26  1  0  0  0  0
M  CHG  2  13  -1  18  -1
M  END
>  <CHROM.1>
46.87692884,-111.74378543,21.63461051,47.56209913,-86.27850895,-60.10623469
-169.89274582,66.54303106,0.42243330,-16.27925717,-94.27521484,-1.00549258
-1.23784885,-0.59243618

>  <Name>
ligand

>  <RI>
0

>  <Rbt.Current_Directory>
/home/itssahil/PROJECTS/Mol_Feturizer/New_Systems/rnas/2CKY

>  <Rbt.Executable>
rbdock ($Id: //depot/dev/client3/rdock/2013.1/src/exe/rbdock.cxx#4 $)

>  <Rbt.Library>
libRbt.so (2013.1, Build901 2013/11/27)

>  <Rbt.Parameter_File>
/export/apps/rDock/src/rDock_2013.1_src/data/scripts/dock_solv.prm

>  <Rbt.Receptor>
prm/pocket_docking_4.prm

>  <SCORE>
-18.3863

>  <SCORE.INTER>
-12.0172

>  <SCORE.INTER.CONST>
1

>  <SCORE.INTER.POLAR>
0

>  <SCORE.INTER.ROT>
8

>  <SCORE.INTER.SOLV>
14.0826

>  <SCORE.INTER.VDW>
-21.639

>  <SCORE.INTER.norm>
-0.4622

>  <SCORE.INTRA>
-6.36914

>  <SCORE.INTRA.DIHEDRAL>
-10.2892

>  <SCORE.INTRA.DIHEDRAL.0>
16.4846

>  <SCORE.INTRA.POLAR>
0

>  <SCORE.INTRA.POLAR.0>
0

>  <SCORE.INTRA.REPUL>
0

>  <SCORE.INTRA.REPUL.0>
0

>  <SCORE.INTRA.SOLV>
0.268695

>  <SCORE.INTRA.SOLV.lig_0>
-82.6983

>  <SCORE.INTRA.VDW>
-1.35891

>  <SCORE.INTRA.VDW.0>
-2.11466

>  <SCORE.INTRA.norm>
-0.244967

>  <SCORE.RESTR>
0

>  <SCORE.RESTR.CAVITY>
0

>  <SCORE.RESTR.norm>
0

>  <SCORE.SYSTEM>
0

>  <SCORE.SYSTEM.CONST>
0

>  <SCORE.SYSTEM.DIHEDRAL>
0

>  <SCORE.SYSTEM.SOLV>
0

>  <SCORE.SYSTEM.norm>
0

>  <SCORE.heavy>
26

>  <SCORE.norm>
-0.707167

>  <RMSD>
2.288

$$$$
ligand
 OpenBabel11021811423D
libRbt.so/2013.1/901 2013/11/27
 26 27  0  0  0  0  0  0  0  0999 V2000
   -0.3470  -19.5003  -85.6078 C   0  0  0  0  0  0  0  0  0  0  0  0
    1.7700  -19.7196  -92.5850 C   0  0  0  0  0  0  0  0  0  0  0  0
    0.4897  -16.7968  -97.4918 P   0  0  2  0  0  0  0  0  0  0  0  0
    3.1984  -16.2822  -97.7547 P   0  0  2  0  0  0  0  0  0  0  0  0
    1.4501  -17.2995  -90.5869 C   0  0  0  0  0  0  0  0  0  0  0  0
   -0.2788  -18.3225  -89.1293 C   0  0  0  0  0  0  0  0  0  0  0  0
    1.0196  -17.8456  -89.2546 C   0  0  0  0  0  0  0  0  0  0  0  0
    1.8826  -17.9431  -88.1592 C   0  0  0  0  0  0  0  0  0  0  0  0
    3.1510  -17.5321  -88.1654 N   0  0  0  0  0  0  0  0  0  0  0  0
    1.4160  -18.4875  -86.9907 N   0  0  0  0  0  0  0  0  0  0  0  0
    0.1271  -18.9304  -86.8915 C   0  0  0  0  0  0  0  0  0  0  0  0
   -0.7293  -18.8618  -87.9434 N   0  0  0  0  0  0  0  0  0  0  0  0
    0.3974  -17.5775  -98.7880 O   0  5  0  0  0  0  0  0  0  0  0  0
    4.4690  -16.5895  -96.9947 O   0  0  0  0  0  0  0  0  0  0  0  0
   -1.3218  -17.4370  -93.3557 S   0  0  0  0  0  0  0  0  0  0  0  0
   -0.5174  -16.8943  -92.0463 C   0  0  0  0  0  0  0  0  0  0  0  0
   -0.0152  -15.3901  -97.8018 O   0  0  0  0  0  0  0  0  0  0  0  0
    2.9230  -14.7934  -97.8112 O   0  5  0  0  0  0  0  0  0  0  0  0
    0.5877  -17.6448  -91.6917 N   0  0  0  0  0  0  0  0  0  0  0  0
    2.0007  -16.9546  -96.9457 O   0  0  0  0  0  0  0  0  0  0  0  0
    3.3310  -16.8539  -99.1517 O   0  0  0  0  0  0  0  0  0  0  0  0
    0.7168  -18.6840  -92.5799 C   0  0  1  0  0  0  0  0  0  0  0  0
   -0.2994  -18.6489  -93.5476 C   0  0  2  0  0  0  0  0  0  0  0  0
   -0.6570  -19.4894  -94.7485 C   0  0  0  0  0  0  0  0  0  0  0  0
    0.1212  -19.0445  -95.9914 C   0  0  0  0  0  0  0  0  0  0  0  0
   -0.2010  -17.6923  -96.2924 O   0  0  0  0  0  0  0  0  0  0  0  0
  1 11  1  0  0  0  0
  3 13  1  6  0  0  0
  3 17  2  0  0  0  0
  3 20  1  0  0  0  0
  3 26  1  0  0  0  0
  4 14  1  1  0  0  0
  4 18  1  0  0  0  0
  4 21  2  0  0  0  0
  4 20  1  0  0  0  0
  5 19  1  0  0  0  0
  5  7  1  0  0  0  0
  6  7  2  0  0  0  0
  6 12  1  0  0  0  0
  7  8  1  0  0  0  0
  8  9  1  0  0  0  0
  8 10  2  0  0  0  0
 10 11  1  0  0  0  0
 11 12  2  0  0  0  0
 15 23  1  0  0  0  0
 15 16  1  0  0  0  0
 16 19  1  0  0  0  0
 19 22  1  0  0  0  0
 22  2  1  6  0  0  0
 22 23  1  0  0  0  0
 23 24  1  6  0  0  0
 24 25  1  0  0  0  0
 25 26  1  0  0  0  0
M  CHG  2  13  -1  18  -1
M  END
>  <CHROM.1>
67.68683201,87.50177481,-15.55423248,179.38786874,94.57033844,-60.81937083
175.80455474,52.03481517,0.97158465,-17.58359605,-93.63039857,1.70569132
0.30340916,1.72220076

>  <Name>
ligand

>  <RI>
0

>  <Rbt.Current_Directory>
/home/itssahil/PROJECTS/Mol_Feturizer/New_Systems/rnas/2CKY

>  <Rbt.Executable>
rbdock ($Id: //depot/dev/client3/rdock/2013.1/src/exe/rbdock.cxx#4 $)

>  <Rbt.Library>
libRbt.so (2013.1, Build901 2013/11/27)

>  <Rbt.Parameter_File>
/export/apps/rDock/src/rDock_2013.1_src/data/scripts/dock_solv.prm

>  <Rbt.Receptor>
prm/pocket_docking_3.prm

>  <SCORE>
-24.2845

>  <SCORE.INTER>
-17.8956

>  <SCORE.INTER.CONST>
1

>  <SCORE.INTER.POLAR>
0

>  <SCORE.INTER.ROT>
8

>  <SCORE.INTER.SOLV>
18.6607

>  <SCORE.INTER.VDW>
-27.084

>  <SCORE.INTER.norm>
-0.688293

>  <SCORE.INTRA>
-6.38889

>  <SCORE.INTRA.DIHEDRAL>
-11.3391

>  <SCORE.INTRA.DIHEDRAL.0>
16.4846

>  <SCORE.INTRA.POLAR>
0

>  <SCORE.INTRA.POLAR.0>
0

>  <SCORE.INTRA.REPUL>
0

>  <SCORE.INTRA.REPUL.0>
0

>  <SCORE.INTRA.SOLV>
1.74072

>  <SCORE.INTRA.SOLV.lig_0>
-82.6983

>  <SCORE.INTRA.VDW>
-1.58972

>  <SCORE.INTRA.VDW.0>
-2.11466

>  <SCORE.INTRA.norm>
-0.245726

>  <SCORE.RESTR>
0

>  <SCORE.RESTR.CAVITY>
0

>  <SCORE.RESTR.norm>
0

>  <SCORE.SYSTEM>
0

>  <SCORE.SYSTEM.CONST>
0

>  <SCORE.SYSTEM.DIHEDRAL>
0

>  <SCORE.SYSTEM.SOLV>
0

>  <SCORE.SYSTEM.norm>
0

>  <SCORE.heavy>
26

>  <SCORE.norm>
-0.934019

>  <RMSD>
2.289

$$$$
ligand
 OpenBabel11021811423D
libRbt.so/2013.1/901 2013/11/27
 26 27  0  0  0  0  0  0  0  0999 V2000
   -0.0442  -19.1151  -86.1013 C   0  0  0  0  0  0  0  0  0  0  0  0
    0.2776  -15.9511  -92.1669 C   0  0  0  0  0  0  0  0  0  0  0  0
    0.4681  -16.2267  -97.5562 P   0  0  2  0  0  0  0  0  0  0  0  0
    0.5006  -15.5697 -100.2465 P   0  0  2  0  0  0  0  0  0  0  0  0
    2.6947  -17.5141  -90.8763 C   0  0  0  0  0  0  0  0  0  0  0  0
    0.8221  -18.6182  -89.6784 C   0  0  0  0  0  0  0  0  0  0  0  0
    2.0020  -17.8901  -89.5966 C   0  0  0  0  0  0  0  0  0  0  0  0
    2.5213  -17.5867  -88.3346 C   0  0  0  0  0  0  0  0  0  0  0  0
    3.6502  -16.9067  -88.1324 N   0  0  0  0  0  0  0  0  0  0  0  0
    1.8410  -17.9994  -87.2183 N   0  0  0  0  0  0  0  0  0  0  0  0
    0.6717  -18.6975  -87.3304 C   0  0  0  0  0  0  0  0  0  0  0  0
    0.1512  -19.0191  -88.5430 N   0  0  0  0  0  0  0  0  0  0  0  0
    1.4704  -15.1218  -97.2867 O   0  5  0  0  0  0  0  0  0  0  0  0
    1.0493  -14.1637 -100.1536 O   0  0  0  0  0  0  0  0  0  0  0  0
    1.2770  -19.1995  -94.1195 S   0  0  0  0  0  0  0  0  0  0  0  0
    2.2458  -18.9834  -92.8268 C   0  0  0  0  0  0  0  0  0  0  0  0
    1.2567  -17.5335  -97.5427 O   0  0  0  0  0  0  0  0  0  0  0  0
   -0.4637  -15.7216 -101.4053 O   0  5  0  0  0  0  0  0  0  0  0  0
    1.9730  -17.8534  -92.0794 N   0  0  0  0  0  0  0  0  0  0  0  0
   -0.3231  -15.8348  -98.9077 O   0  0  0  0  0  0  0  0  0  0  0  0
    1.6670  -16.5254 -100.3939 O   0  0  0  0  0  0  0  0  0  0  0  0
    0.9112  -17.1951  -92.6493 C   0  0  1  0  0  0  0  0  0  0  0  0
    0.4516  -17.8726  -93.7895 C   0  0  2  0  0  0  0  0  0  0  0  0
   -0.6576  -17.6486  -94.7876 C   0  0  0  0  0  0  0  0  0  0  0  0
   -0.7975  -16.1640  -95.1409 C   0  0  0  0  0  0  0  0  0  0  0  0
   -0.8244  -16.0149  -96.5551 O   0  0  0  0  0  0  0  0  0  0  0  0
  1 11  1  0  0  0  0
  3 13  1  1  0  0  0
  3 17  2  0  0  0  0
  3 20  1  0  0  0  0
  3 26  1  0  0  0  0
  4 14  1  1  0  0  0
  4 18  1  0  0  0  0
  4 21  2  0  0  0  0
  4 20  1  0  0  0  0
  5 19  1  0  0  0  0
  5  7  1  0  0  0  0
  6  7  2  0  0  0  0
  6 12  1  0  0  0  0
  7  8  1  0  0  0  0
  8  9  1  0  0  0  0
  8 10  2  0  0  0  0
 10 11  1  0  0  0  0
 11 12  2  0  0  0  0
 15 23  1  0  0  0  0
 15 16  1  0  0  0  0
 16 19  1  0  0  0  0
 19 22  1  0  0  0  0
 22  2  1  1  0  0  0
 22 23  1  0  0  0  0
 23 24  1  1  0  0  0
 24 25  1  0  0  0  0
 25 26  1  0  0  0  0
M  CHG  2  13  -1  18  -1
M  END
>  <CHROM.1>
56.56739781,-98.92326528,5.62900145,-79.91843269,-140.74269970,130.13684664
-71.28782209,-67.63685600,0.89761658,-17.09721703,-94.30120015,1.47575927
0.39868162,1.83146785

>  <Name>
ligand

>  <RI>
0

>  <Rbt.Current_Directory>
/home/itssahil/PROJECTS/Mol_Feturizer/New_Systems/rnas/2CKY

>  <Rbt.Executable>
rbdock ($Id: //depot/dev/client3/rdock/2013.1/src/exe/rbdock.cxx#4 $)

>  <Rbt.Library>
libRbt.so (2013.1, Build901 2013/11/27)

>  <Rbt.Parameter_File>
/export/apps/rDock/src/rDock_2013.1_src/data/scripts/dock_solv.prm

>  <Rbt.Receptor>
prm/pocket_docking_3.prm

>  <SCORE>
-16.8444

>  <SCORE.INTER>
-13.8371

>  <SCORE.INTER.CONST>
1

>  <SCORE.INTER.POLAR>
0

>  <SCORE.INTER.ROT>
8

>  <SCORE.INTER.SOLV>
20.0847

>  <SCORE.INTER.VDW>
-24.8529

>  <SCORE.INTER.norm>
-0.532195

>  <SCORE.INTRA>
-3.00733

>  <SCORE.INTRA.DIHEDRAL>
-5.37387

>  <SCORE.INTRA.DIHEDRAL.0>
16.4846

>  <SCORE.INTRA.POLAR>
0

>  <SCORE.INTRA.POLAR.0>
0

>  <SCORE.INTRA.REPUL>
0

>  <SCORE.INTRA.REPUL.0>
0

>  <SCORE.INTRA.SOLV>
1.68873

>  <SCORE.INTRA.SOLV.lig_0>
-82.6983

>  <SCORE.INTRA.VDW>
-1.16476

>  <SCORE.INTRA.VDW.0>
-2.11466

>  <SCORE.INTRA.norm>
-0.115667

>  <SCORE.RESTR>
0

>  <SCORE.RESTR.CAVITY>
0

>  <SCORE.RESTR.norm>
0

>  <SCORE.SYSTEM>
0

>  <SCORE.SYSTEM.CONST>
0

>  <SCORE.SYSTEM.DIHEDRAL>
0

>  <SCORE.SYSTEM.SOLV>
0

>  <SCORE.SYSTEM.norm>
0

>  <SCORE.heavy>
26

>  <SCORE.norm>
-0.647862

>  <RMSD>
2.303

$$$$
ligand
 OpenBabel11021811423D
libRbt.so/2013.1/901 2013/11/27
 26 27  0  0  0  0  0  0  0  0999 V2000
   -0.1340  -19.1016  -85.5442 C   0  0  0  0  0  0  0  0  0  0  0  0
    1.2266  -15.2490  -92.5448 C   0  0  0  0  0  0  0  0  0  0  0  0
    1.0566  -16.4984  -97.3437 P   0  0  2  0  0  0  0  0  0  0  0  0
    3.6405  -15.5015  -97.3478 P   0  0  2  0  0  0  0  0  0  0  0  0
    1.7840  -17.8106  -90.7902 C   0  0  0  0  0  0  0  0  0  0  0  0
    0.0512  -18.6549  -89.2266 C   0  0  0  0  0  0  0  0  0  0  0  0
    1.3179  -18.1102  -89.3931 C   0  0  0  0  0  0  0  0  0  0  0  0
    2.1221  -17.9157  -88.2663 C   0  0  0  0  0  0  0  0  0  0  0  0
    3.3568  -17.4139  -88.3042 N   0  0  0  0  0  0  0  0  0  0  0  0
    1.6292  -18.2496  -87.0314 N   0  0  0  0  0  0  0  0  0  0  0  0
    0.3711  -18.7655  -86.8968 C   0  0  0  0  0  0  0  0  0  0  0  0
   -0.4269  -18.9789  -87.9750 N   0  0  0  0  0  0  0  0  0  0  0  0
    1.5227  -17.9110  -97.6363 O   0  5  0  0  0  0  0  0  0  0  0  0
    4.2144  -16.8642  -97.6647 O   0  0  0  0  0  0  0  0  0  0  0  0
   -1.3660  -18.1356  -93.1010 S   0  0  0  0  0  0  0  0  0  0  0  0
   -0.2384  -18.5765  -92.0100 C   0  0  0  0  0  0  0  0  0  0  0  0
    0.5795  -15.9205  -98.6734 O   0  0  0  0  0  0  0  0  0  0  0  0
    4.5405  -14.7150  -96.4166 O   0  5  0  0  0  0  0  0  0  0  0  0
    0.7273  -17.6213  -91.7550 N   0  0  0  0  0  0  0  0  0  0  0  0
    2.2641  -15.7452  -96.5816 O   0  0  0  0  0  0  0  0  0  0  0  0
    3.4400  -14.7562  -98.6518 O   0  0  0  0  0  0  0  0  0  0  0  0
    0.4598  -16.5112  -92.5176 C   0  0  1  0  0  0  0  0  0  0  0  0
   -0.6916  -16.7012  -93.2977 C   0  0  2  0  0  0  0  0  0  0  0  0
   -1.4608  -15.8591  -94.2855 C   0  0  0  0  0  0  0  0  0  0  0  0
   -0.5673  -15.4049  -95.4447 C   0  0  0  0  0  0  0  0  0  0  0  0
    0.0527  -16.5398  -96.0368 O   0  0  0  0  0  0  0  0  0  0  0  0
  1 11  1  0  0  0  0
  3 13  1  6  0  0  0
  3 17  2  0  0  0  0
  3 20  1  0  0  0  0
  3 26  1  0  0  0  0
  4 14  1  6  0  0  0
  4 18  1  0  0  0  0
  4 21  2  0  0  0  0
  4 20  1  0  0  0  0
  5 19  1  0  0  0  0
  5  7  1  0  0  0  0
  6  7  2  0  0  0  0
  6 12  1  0  0  0  0
  7  8  1  0  0  0  0
  8  9  1  0  0  0  0
  8 10  2  0  0  0  0
 10 11  1  0  0  0  0
 11 12  2  0  0  0  0
 15 23  1  0  0  0  0
 15 16  1  0  0  0  0
 16 19  1  0  0  0  0
 19 22  1  0  0  0  0
 22  2  1  1  0  0  0
 22 23  1  0  0  0  0
 23 24  1  1  0  0  0
 24 25  1  0  0  0  0
 25 26  1  0  0  0  0
M  CHG  2  13  -1  18  -1
M  END
>  <CHROM.1>
64.31683240,-57.24952074,23.23654915,-63.04691932,-123.01530199,54.04209929
178.04161136,178.81769703,1.18420986,-16.95831640,-93.46691794,-1.74262107
-0.22531465,-1.34882151

>  <Name>
ligand

>  <RI>
0

>  <Rbt.Current_Directory>
/home/itssahil/PROJECTS/Mol_Feturizer/New_Systems/rnas/2CKY

>  <Rbt.Executable>
rbdock ($Id: //depot/dev/client3/rdock/2013.1/src/exe/rbdock.cxx#4 $)

>  <Rbt.Library>
libRbt.so (2013.1, Build901 2013/11/27)

>  <Rbt.Parameter_File>
/export/apps/rDock/src/rDock_2013.1_src/data/scripts/dock_solv.prm

>  <Rbt.Receptor>
prm/pocket_docking_4.prm

>  <SCORE>
-22.9548

>  <SCORE.INTER>
-15.8853

>  <SCORE.INTER.CONST>
1

>  <SCORE.INTER.POLAR>
0

>  <SCORE.INTER.ROT>
8

>  <SCORE.INTER.SOLV>
18.1239

>  <SCORE.INTER.VDW>
-25.5648

>  <SCORE.INTER.norm>
-0.610973

>  <SCORE.INTRA>
-7.06955

>  <SCORE.INTRA.DIHEDRAL>
-11.7772

>  <SCORE.INTRA.DIHEDRAL.0>
16.4846

>  <SCORE.INTRA.POLAR>
0

>  <SCORE.INTRA.POLAR.0>
0

>  <SCORE.INTRA.REPUL>
0

>  <SCORE.INTRA.REPUL.0>
0

>  <SCORE.INTRA.SOLV>
-0.177937

>  <SCORE.INTRA.SOLV.lig_0>
-82.6983

>  <SCORE.INTRA.VDW>
-1.09199

>  <SCORE.INTRA.VDW.0>
-2.11466

>  <SCORE.INTRA.norm>
-0.271906

>  <SCORE.RESTR>
0

>  <SCORE.RESTR.CAVITY>
0

>  <SCORE.RESTR.norm>
0

>  <SCORE.SYSTEM>
0

>  <SCORE.SYSTEM.CONST>
0

>  <SCORE.SYSTEM.DIHEDRAL>
0

>  <SCORE.SYSTEM.SOLV>
0

>  <SCORE.SYSTEM.norm>
0

>  <SCORE.heavy>
26

>  <SCORE.norm>
-0.882879

>  <RMSD>
2.316

$$$$
ligand
 OpenBabel11021811423D
libRbt.so/2013.1/901 2013/11/27
 26 27  0  0  0  0  0  0  0  0999 V2000
   -0.0222  -19.1701  -85.8222 C   0  0  0  0  0  0  0  0  0  0  0  0
    1.6734  -19.8419  -92.6548 C   0  0  0  0  0  0  0  0  0  0  0  0
    1.0021  -16.6648  -97.9854 P   0  0  2  0  0  0  0  0  0  0  0  0
    3.7221  -16.2629  -98.3175 P   0  0  2  0  0  0  0  0  0  0  0  0
    2.0598  -17.3008  -90.8259 C   0  0  0  0  0  0  0  0  0  0  0  0
    2.3177  -18.0000  -88.4584 C   0  0  0  0  0  0  0  0  0  0  0  0
    1.4697  -17.8146  -89.5427 C   0  0  0  0  0  0  0  0  0  0  0  0
    0.1031  -18.0598  -89.3799 C   0  0  0  0  0  0  0  0  0  0  0  0
   -0.8061  -17.9045  -90.3428 N   0  0  0  0  0  0  0  0  0  0  0  0
   -0.3548  -18.4939  -88.1629 N   0  0  0  0  0  0  0  0  0  0  0  0
    0.5067  -18.6862  -87.1197 C   0  0  0  0  0  0  0  0  0  0  0  0
    1.8370  -18.4421  -87.2445 N   0  0  0  0  0  0  0  0  0  0  0  0
    0.8334  -17.5929  -99.1721 O   0  5  0  0  0  0  0  0  0  0  0  0
    3.4676  -14.7825  -98.4912 O   0  0  0  0  0  0  0  0  0  0  0  0
   -0.4140  -16.7333  -93.8136 S   0  0  0  0  0  0  0  0  0  0  0  0
    0.4408  -16.3848  -92.4705 C   0  0  0  0  0  0  0  0  0  0  0  0
    0.5684  -15.2801  -98.4591 O   0  0  0  0  0  0  0  0  0  0  0  0
    3.7152  -16.9942  -99.6445 O   0  5  0  0  0  0  0  0  0  0  0  0
    1.2039  -17.4281  -91.9811 N   0  0  0  0  0  0  0  0  0  0  0  0
    2.5153  -16.8419  -97.4518 O   0  0  0  0  0  0  0  0  0  0  0  0
    5.0557  -16.4363  -97.6195 O   0  0  0  0  0  0  0  0  0  0  0  0
    1.0321  -18.5189  -92.7973 C   0  0  1  0  0  0  0  0  0  0  0  0
    0.1510  -18.2267  -93.8502 C   0  0  2  0  0  0  0  0  0  0  0  0
   -0.3912  -18.9946  -95.0304 C   0  0  0  0  0  0  0  0  0  0  0  0
    0.4330  -18.7279  -96.2945 C   0  0  0  0  0  0  0  0  0  0  0  0
    0.2934  -17.3635  -96.6711 O   0  0  0  0  0  0  0  0  0  0  0  0
  1 11  1  0  0  0  0
  3 13  1  6  0  0  0
  3 17  2  0  0  0  0
  3 20  1  0  0  0  0
  3 26  1  0  0  0  0
  4 14  1  6  0  0  0
  4 18  1  0  0  0  0
  4 21  2  0  0  0  0
  4 20  1  0  0  0  0
  5 19  1  0  0  0  0
  5  7  1  0  0  0  0
  6  7  2  0  0  0  0
  6 12  1  0  0  0  0
  7  8  1  0  0  0  0
  8  9  1  0  0  0  0
  8 10  2  0  0  0  0
 10 11  1  0  0  0  0
 11 12  2  0  0  0  0
 15 23  1  0  0  0  0
 15 16  1  0  0  0  0
 16 19  1  0  0  0  0
 19 22  1  0  0  0  0
 22  2  1  6  0  0  0
 22 23  1  0  0  0  0
 23 24  1  6  0  0  0
 24 25  1  0  0  0  0
 25 26  1  0  0  0  0
M  CHG  2  13  -1  18  -1
M  END
>  <CHROM.1>
71.53815930,98.67468969,166.15524758,57.69952143,84.25087870,-65.33134192
-179.26483307,44.69706739,1.31303212,-17.40847537,-94.08021609,-1.75118825
-0.20969912,-1.42054393

>  <Name>
ligand

>  <RI>
0

>  <Rbt.Current_Directory>
/home/itssahil/PROJECTS/Mol_Feturizer/New_Systems/rnas/2CKY

>  <Rbt.Executable>
rbdock ($Id: //depot/dev/client3/rdock/2013.1/src/exe/rbdock.cxx#4 $)

>  <Rbt.Library>
libRbt.so (2013.1, Build901 2013/11/27)

>  <Rbt.Parameter_File>
/export/apps/rDock/src/rDock_2013.1_src/data/scripts/dock_solv.prm

>  <Rbt.Receptor>
prm/pocket_docking_3.prm

>  <SCORE>
-21.1354

>  <SCORE.INTER>
-15.8813

>  <SCORE.INTER.CONST>
1

>  <SCORE.INTER.POLAR>
0

>  <SCORE.INTER.ROT>
8

>  <SCORE.INTER.SOLV>
16.4761

>  <SCORE.INTER.VDW>
-25.0129

>  <SCORE.INTER.norm>
-0.61082

>  <SCORE.INTRA>
-5.25404

>  <SCORE.INTRA.DIHEDRAL>
-11.0754

>  <SCORE.INTRA.DIHEDRAL.0>
16.4846

>  <SCORE.INTRA.POLAR>
0

>  <SCORE.INTRA.POLAR.0>
0

>  <SCORE.INTRA.REPUL>
0

>  <SCORE.INTRA.REPUL.0>
0

>  <SCORE.INTRA.SOLV>
4.19034

>  <SCORE.INTRA.SOLV.lig_0>
-82.6983

>  <SCORE.INTRA.VDW>
-1.8115

>  <SCORE.INTRA.VDW.0>
-2.11466

>  <SCORE.INTRA.norm>
-0.202078

>  <SCORE.RESTR>
0

>  <SCORE.RESTR.CAVITY>
0

>  <SCORE.RESTR.norm>
0

>  <SCORE.SYSTEM>
0

>  <SCORE.SYSTEM.CONST>
0

>  <SCORE.SYSTEM.DIHEDRAL>
0

>  <SCORE.SYSTEM.SOLV>
0

>  <SCORE.SYSTEM.norm>
0

>  <SCORE.heavy>
26

>  <SCORE.norm>
-0.812898

>  <RMSD>
2.317

$$$$
ligand
 OpenBabel11021811423D
libRbt.so/2013.1/901 2013/11/27
 26 27  0  0  0  0  0  0  0  0999 V2000
    0.0109  -19.3857  -85.9829 C   0  0  0  0  0  0  0  0  0  0  0  0
    2.5006  -18.1080  -93.6637 C   0  0  0  0  0  0  0  0  0  0  0  0
    1.0566  -17.7906  -99.2013 P   0  0  2  0  0  0  0  0  0  0  0  0
    0.6946  -15.1917 -100.0872 P   0  0  2  0  0  0  0  0  0  0  0  0
    1.4352  -16.9029  -90.9500 C   0  0  0  0  0  0  0  0  0  0  0  0
   -0.1555  -18.0892  -89.4592 C   0  0  0  0  0  0  0  0  0  0  0  0
    1.1014  -17.5211  -89.6214 C   0  0  0  0  0  0  0  0  0  0  0  0
    2.0167  -17.5961  -88.5674 C   0  0  0  0  0  0  0  0  0  0  0  0
    3.2534  -17.0998  -88.6120 N   0  0  0  0  0  0  0  0  0  0  0  0
    1.6396  -18.2097  -87.4009 N   0  0  0  0  0  0  0  0  0  0  0  0
    0.3887  -18.7424  -87.2638 C   0  0  0  0  0  0  0  0  0  0  0  0
   -0.5161  -18.6972  -88.2758 N   0  0  0  0  0  0  0  0  0  0  0  0
    2.5554  -17.6500  -99.0229 O   0  5  0  0  0  0  0  0  0  0  0  0
    0.1584  -15.7031 -101.4054 O   0  0  0  0  0  0  0  0  0  0  0  0
   -1.4083  -17.9086  -93.4543 S   0  0  0  0  0  0  0  0  0  0  0  0
   -0.7288  -17.3509  -92.0819 C   0  0  0  0  0  0  0  0  0  0  0  0
    0.8482  -18.4863 -100.5439 O   0  0  0  0  0  0  0  0  0  0  0  0
    2.1939  -14.9783 -100.1349 O   0  5  0  0  0  0  0  0  0  0  0  0
    0.6525  -17.3910  -92.0602 N   0  0  0  0  0  0  0  0  0  0  0  0
    0.4120  -16.3241  -99.0015 O   0  0  0  0  0  0  0  0  0  0  0  0
   -0.0185  -13.8966  -99.7553 O   0  0  0  0  0  0  0  0  0  0  0  0
    1.0962  -17.9056  -93.2534 C   0  0  1  0  0  0  0  0  0  0  0  0
    0.0199  -18.2194  -94.0982 C   0  0  2  0  0  0  0  0  0  0  0  0
   -0.1122  -18.7802  -95.4927 C   0  0  0  0  0  0  0  0  0  0  0  0
    0.6900  -17.9538  -96.5036 C   0  0  0  0  0  0  0  0  0  0  0  0
    0.4232  -18.4261  -97.8184 O   0  0  0  0  0  0  0  0  0  0  0  0
  1 11  1  0  0  0  0
  3 13  1  1  0  0  0
  3 17  2  0  0  0  0
  3 20  1  0  0  0  0
  3 26  1  0  0  0  0
  4 14  1  6  0  0  0
  4 18  1  0  0  0  0
  4 21  2  0  0  0  0
  4 20  1  0  0  0  0
  5 19  1  0  0  0  0
  5  7  1  0  0  0  0
  6  7  2  0  0  0  0
  6 12  1  0  0  0  0
  7  8  1  0  0  0  0
  8  9  1  0  0  0  0
  8 10  2  0  0  0  0
 10 11  1  0  0  0  0
 11 12  2  0  0  0  0
 15 23  1  0  0  0  0
 15 16  1  0  0  0  0
 16 19  1  0  0  0  0
 19 22  1  0  0  0  0
 22  2  1  6  0  0  0
 22 23  1  0  0  0  0
 23 24  1  6  0  0  0
 24 25  1  0  0  0  0
 25 26  1  0  0  0  0
M  CHG  2  13  -1  18  -1
M  END
>  <CHROM.1>
68.43013834,56.05439735,-22.66708794,60.07604323,124.89625541,-173.74012854
178.54647674,49.14926015,0.70672781,-17.37133919,-94.70621018,1.58192133
0.67597738,1.72557568

>  <Name>
ligand

>  <RI>
0

>  <Rbt.Current_Directory>
/home/itssahil/PROJECTS/Mol_Feturizer/New_Systems/rnas/2CKY

>  <Rbt.Executable>
rbdock ($Id: //depot/dev/client3/rdock/2013.1/src/exe/rbdock.cxx#4 $)

>  <Rbt.Library>
libRbt.so (2013.1, Build901 2013/11/27)

>  <Rbt.Parameter_File>
/export/apps/rDock/src/rDock_2013.1_src/data/scripts/dock_solv.prm

>  <Rbt.Receptor>
prm/pocket_docking_4.prm

>  <SCORE>
-21.4682

>  <SCORE.INTER>
-15.5968

>  <SCORE.INTER.CONST>
1

>  <SCORE.INTER.POLAR>
0

>  <SCORE.INTER.ROT>
8

>  <SCORE.INTER.SOLV>
18.7866

>  <SCORE.INTER.VDW>
-25.5934

>  <SCORE.INTER.norm>
-0.599876

>  <SCORE.INTRA>
-5.8714

>  <SCORE.INTRA.DIHEDRAL>
-11.4832

>  <SCORE.INTRA.DIHEDRAL.0>
16.4846

>  <SCORE.INTRA.POLAR>
0

>  <SCORE.INTRA.POLAR.0>
0

>  <SCORE.INTRA.REPUL>
0

>  <SCORE.INTRA.REPUL.0>
0

>  <SCORE.INTRA.SOLV>
0.254568

>  <SCORE.INTRA.SOLV.lig_0>
-82.6983

>  <SCORE.INTRA.VDW>
-0.257077

>  <SCORE.INTRA.VDW.0>
-2.11466

>  <SCORE.INTRA.norm>
-0.225823

>  <SCORE.RESTR>
0

>  <SCORE.RESTR.CAVITY>
0

>  <SCORE.RESTR.norm>
0

>  <SCORE.SYSTEM>
0

>  <SCORE.SYSTEM.CONST>
0

>  <SCORE.SYSTEM.DIHEDRAL>
0

>  <SCORE.SYSTEM.SOLV>
0

>  <SCORE.SYSTEM.norm>
0

>  <SCORE.heavy>
26

>  <SCORE.norm>
-0.8257

>  <RMSD>
2.321

$$$$
ligand
 OpenBabel11021811423D
libRbt.so/2013.1/901 2013/11/27
 26 27  0  0  0  0  0  0  0  0999 V2000
   -0.0249  -18.9831  -86.1028 C   0  0  0  0  0  0  0  0  0  0  0  0
    3.0479  -17.2665  -94.0752 C   0  0  0  0  0  0  0  0  0  0  0  0
    1.8887  -14.1182  -98.1046 P   0  0  2  0  0  0  0  0  0  0  0  0
    1.6738  -16.5339  -99.4420 P   0  0  2  0  0  0  0  0  0  0  0  0
    2.6028  -17.4340  -90.9567 C   0  0  0  0  0  0  0  0  0  0  0  0
    2.4568  -17.5804  -88.4833 C   0  0  0  0  0  0  0  0  0  0  0  0
    1.8869  -17.8818  -89.7135 C   0  0  0  0  0  0  0  0  0  0  0  0
    0.6521  -18.5367  -89.7426 C   0  0  0  0  0  0  0  0  0  0  0  0
    0.0041  -18.8652  -90.8606 N   0  0  0  0  0  0  0  0  0  0  0  0
    0.0519  -18.8782  -88.5583 N   0  0  0  0  0  0  0  0  0  0  0  0
    0.6466  -18.5858  -87.3632 C   0  0  0  0  0  0  0  0  0  0  0  0
    1.8386  -17.9375  -87.3042 N   0  0  0  0  0  0  0  0  0  0  0  0
    1.5523  -13.2995  -99.3353 O   0  5  0  0  0  0  0  0  0  0  0  0
    3.1305  -16.8375  -99.1726 O   0  0  0  0  0  0  0  0  0  0  0  0
   -0.1180  -15.3211  -92.8280 S   0  0  0  0  0  0  0  0  0  0  0  0
    0.6441  -16.0412  -91.5803 C   0  0  0  0  0  0  0  0  0  0  0  0
    3.4083  -14.0798  -97.9665 O   0  0  0  0  0  0  0  0  0  0  0  0
    1.4855  -15.8013 -100.7548 O   0  5  0  0  0  0  0  0  0  0  0  0
    1.7719  -16.7612  -91.9265 N   0  0  0  0  0  0  0  0  0  0  0  0
    1.1816  -15.5586  -98.2811 O   0  0  0  0  0  0  0  0  0  0  0  0
    0.9094  -17.8421  -99.4463 O   0  0  0  0  0  0  0  0  0  0  0  0
    1.9553  -16.6652  -93.2839 C   0  0  1  0  0  0  0  0  0  0  0  0
    0.9538  -15.8776  -93.8732 C   0  0  2  0  0  0  0  0  0  0  0  0
    0.6481  -15.4172  -95.2771 C   0  0  0  0  0  0  0  0  0  0  0  0
    1.0975  -13.9690  -95.4986 C   0  0  0  0  0  0  0  0  0  0  0  0
    0.9196  -13.6225  -96.8665 O   0  0  0  0  0  0  0  0  0  0  0  0
  1 11  1  0  0  0  0
  3 13  1  6  0  0  0
  3 17  2  0  0  0  0
  3 20  1  0  0  0  0
  3 26  1  0  0  0  0
  4 14  1  1  0  0  0
  4 18  1  0  0  0  0
  4 21  2  0  0  0  0
  4 20  1  0  0  0  0
  5 19  1  0  0  0  0
  5  7  1  0  0  0  0
  6  7  2  0  0  0  0
  6 12  1  0  0  0  0
  7  8  1  0  0  0  0
  8  9  1  0  0  0  0
  8 10  2  0  0  0  0
 10 11  1  0  0  0  0
 11 12  2  0  0  0  0
 15 23  1  0  0  0  0
 15 16  1  0  0  0  0
 16 19  1  0  0  0  0
 19 22  1  0  0  0  0
 22  2  1  1  0  0  0
 22 23  1  0  0  0  0
 23 24  1  1  0  0  0
 24 25  1  0  0  0  0
 25 26  1  0  0  0  0
M  CHG  2  13  -1  18  -1
M  END
>  <CHROM.1>
66.09361138,28.40786708,-131.65652667,60.96534491,78.61114720,173.98178337
-75.38464525,-167.67671667,1.37762248,-16.31765012,-94.35174696,-2.08084722
1.41346528,-0.79789060

>  <Name>
ligand

>  <RI>
0

>  <Rbt.Current_Directory>
/home/itssahil/PROJECTS/Mol_Feturizer/New_Systems/rnas/2CKY

>  <Rbt.Executable>
rbdock ($Id: //depot/dev/client3/rdock/2013.1/src/exe/rbdock.cxx#4 $)

>  <Rbt.Library>
libRbt.so (2013.1, Build901 2013/11/27)

>  <Rbt.Parameter_File>
/export/apps/rDock/src/rDock_2013.1_src/data/scripts/dock_solv.prm

>  <Rbt.Receptor>
prm/pocket_docking_3.prm

>  <SCORE>
-17.4087

>  <SCORE.INTER>
-12.4818

>  <SCORE.INTER.CONST>
1

>  <SCORE.INTER.POLAR>
0

>  <SCORE.INTER.ROT>
8

>  <SCORE.INTER.SOLV>
8.21466

>  <SCORE.INTER.VDW>
-19.9928

>  <SCORE.INTER.norm>
-0.48007

>  <SCORE.INTRA>
-4.9277

>  <SCORE.INTRA.DIHEDRAL>
-9.76049

>  <SCORE.INTRA.DIHEDRAL.0>
16.4846

>  <SCORE.INTRA.POLAR>
0

>  <SCORE.INTRA.POLAR.0>
0

>  <SCORE.INTRA.REPUL>
0

>  <SCORE.INTRA.REPUL.0>
0

>  <SCORE.INTRA.SOLV>
2.82132

>  <SCORE.INTRA.SOLV.lig_0>
-82.6983

>  <SCORE.INTRA.VDW>
-1.45812

>  <SCORE.INTRA.VDW.0>
-2.11466

>  <SCORE.INTRA.norm>
-0.189527

>  <SCORE.RESTR>
0.000783748

>  <SCORE.RESTR.CAVITY>
0.000783748

>  <SCORE.RESTR.norm>
3.01442e-05

>  <SCORE.SYSTEM>
0

>  <SCORE.SYSTEM.CONST>
0

>  <SCORE.SYSTEM.DIHEDRAL>
0

>  <SCORE.SYSTEM.SOLV>
0

>  <SCORE.SYSTEM.norm>
0

>  <SCORE.heavy>
26

>  <SCORE.norm>
-0.669567

>  <RMSD>
2.342

$$$$
ligand
 OpenBabel11021811423D
libRbt.so/2013.1/901 2013/11/27
 26 27  0  0  0  0  0  0  0  0999 V2000
    2.3995  -17.8093  -87.8033 C   0  0  0  0  0  0  0  0  0  0  0  0
   -0.7269  -19.1047  -95.9717 C   0  0  0  0  0  0  0  0  0  0  0  0
    1.2375  -16.0236  -98.9078 P   0  0  2  0  0  0  0  0  0  0  0  0
    3.9818  -15.8595  -98.5727 P   0  0  2  0  0  0  0  0  0  0  0  0
    0.3740  -19.0719  -93.0157 C   0  0  0  0  0  0  0  0  0  0  0  0
    0.2693  -19.1446  -90.5369 C   0  0  0  0  0  0  0  0  0  0  0  0
    0.9316  -18.6950  -91.6719 C   0  0  0  0  0  0  0  0  0  0  0  0
    2.1118  -17.9617  -91.5181 C   0  0  0  0  0  0  0  0  0  0  0  0
    2.8388  -17.4904  -92.5316 N   0  0  0  0  0  0  0  0  0  0  0  0
    2.5680  -17.6925  -90.2537 N   0  0  0  0  0  0  0  0  0  0  0  0
    1.8840  -18.1316  -89.1553 C   0  0  0  0  0  0  0  0  0  0  0  0
    0.7428  -18.8583  -89.2744 N   0  0  0  0  0  0  0  0  0  0  0  0
    1.2420  -17.3820  -99.5807 O   0  5  0  0  0  0  0  0  0  0  0  0
    4.0874  -14.4859  -99.1962 O   0  0  0  0  0  0  0  0  0  0  0  0
   -1.2983  -15.7008  -94.1144 S   0  0  0  0  0  0  0  0  0  0  0  0
   -0.5501  -16.7706  -93.1389 C   0  0  0  0  0  0  0  0  0  0  0  0
    1.1423  -14.9908 -100.0277 O   0  0  0  0  0  0  0  0  0  0  0  0
    4.1023  -16.9582  -99.6090 O   0  5  0  0  0  0  0  0  0  0  0  0
   -0.3137  -18.0080  -93.7074 N   0  0  0  0  0  0  0  0  0  0  0  0
    2.5247  -15.9680  -97.9353 O   0  0  0  0  0  0  0  0  0  0  0  0
    5.0701  -15.9906  -97.5267 O   0  0  0  0  0  0  0  0  0  0  0  0
   -0.7878  -17.9975  -94.9961 C   0  0  1  0  0  0  0  0  0  0  0  0
   -1.3503  -16.7517  -95.3159 C   0  0  2  0  0  0  0  0  0  0  0  0
   -1.9938  -16.1566  -96.5440 C   0  0  0  0  0  0  0  0  0  0  0  0
   -1.2113  -16.5150  -97.8119 C   0  0  0  0  0  0  0  0  0  0  0  0
    0.1264  -16.0475  -97.6902 O   0  0  0  0  0  0  0  0  0  0  0  0
  1 11  1  0  0  0  0
  3 13  1  6  0  0  0
  3 17  2  0  0  0  0
  3 20  1  0  0  0  0
  3 26  1  0  0  0  0
  4 14  1  6  0  0  0
  4 18  1  0  0  0  0
  4 21  2  0  0  0  0
  4 20  1  0  0  0  0
  5 19  1  0  0  0  0
  5  7  1  0  0  0  0
  6  7  2  0  0  0  0
  6 12  1  0  0  0  0
  7  8  1  0  0  0  0
  8  9  1  0  0  0  0
  8 10  2  0  0  0  0
 10 11  1  0  0  0  0
 11 12  2  0  0  0  0
 15 23  1  0  0  0  0
 15 16  1  0  0  0  0
 16 19  1  0  0  0  0
 19 22  1  0  0  0  0
 22  2  1  6  0  0  0
 22 23  1  0  0  0  0
 23 24  1  6  0  0  0
 24 25  1  0  0  0  0
 25 26  1  0  0  0  0
M  CHG  2  13  -1  18  -1
M  END
>  <CHROM.1>
71.49113376,-5.48751979,104.81172217,68.62687933,136.28309233,-58.26911930
-170.40397620,-48.69203310,1.21948287,-16.91968343,-95.34540138,-1.71575114
-0.06076674,-1.32399447

>  <Name>
ligand

>  <RI>
0

>  <Rbt.Current_Directory>
/home/itssahil/PROJECTS/Mol_Feturizer/New_Systems/rnas/2CKY

>  <Rbt.Executable>
rbdock ($Id: //depot/dev/client3/rdock/2013.1/src/exe/rbdock.cxx#4 $)

>  <Rbt.Library>
libRbt.so (2013.1, Build901 2013/11/27)

>  <Rbt.Parameter_File>
/export/apps/rDock/src/rDock_2013.1_src/data/scripts/dock_solv.prm

>  <Rbt.Receptor>
prm/pocket_docking_3.prm

>  <SCORE>
-14.7575

>  <SCORE.INTER>
-9.12472

>  <SCORE.INTER.CONST>
1

>  <SCORE.INTER.POLAR>
0

>  <SCORE.INTER.ROT>
8

>  <SCORE.INTER.SOLV>
11.6108

>  <SCORE.INTER.VDW>
-18.8867

>  <SCORE.INTER.norm>
-0.350951

>  <SCORE.INTRA>
-5.63666

>  <SCORE.INTRA.DIHEDRAL>
-10.5771

>  <SCORE.INTRA.DIHEDRAL.0>
16.4846

>  <SCORE.INTRA.POLAR>
0

>  <SCORE.INTRA.POLAR.0>
0

>  <SCORE.INTRA.REPUL>
0

>  <SCORE.INTRA.REPUL.0>
0

>  <SCORE.INTRA.SOLV>
1.59864

>  <SCORE.INTRA.SOLV.lig_0>
-82.6983

>  <SCORE.INTRA.VDW>
-1.14742

>  <SCORE.INTRA.VDW.0>
-2.11466

>  <SCORE.INTRA.norm>
-0.216794

>  <SCORE.RESTR>
0.00384647

>  <SCORE.RESTR.CAVITY>
0.00384647

>  <SCORE.RESTR.norm>
0.000147941

>  <SCORE.SYSTEM>
0

>  <SCORE.SYSTEM.CONST>
0

>  <SCORE.SYSTEM.DIHEDRAL>
0

>  <SCORE.SYSTEM.SOLV>
0

>  <SCORE.SYSTEM.norm>
0

>  <SCORE.heavy>
26

>  <SCORE.norm>
-0.567597

>  <RMSD>
2.343

$$$$
ligand
 OpenBabel11021811423D
libRbt.so/2013.1/901 2013/11/27
 26 27  0  0  0  0  0  0  0  0999 V2000
    0.2413  -19.0308  -86.3189 C   0  0  0  0  0  0  0  0  0  0  0  0
    0.0362  -15.7661  -92.8013 C   0  0  0  0  0  0  0  0  0  0  0  0
    1.0813  -15.7990  -98.1485 P   0  0  2  0  0  0  0  0  0  0  0  0
   -0.2782  -13.8098  -99.5143 P   0  0  2  0  0  0  0  0  0  0  0  0
    2.4638  -16.9661  -91.1833 C   0  0  0  0  0  0  0  0  0  0  0  0
    0.6313  -17.9975  -89.8648 C   0  0  0  0  0  0  0  0  0  0  0  0
    1.9176  -17.4737  -89.8784 C   0  0  0  0  0  0  0  0  0  0  0  0
    2.6654  -17.4907  -88.6975 C   0  0  0  0  0  0  0  0  0  0  0  0
    3.9120  -17.0291  -88.5929 N   0  0  0  0  0  0  0  0  0  0  0  0
    2.1003  -18.0050  -87.5593 N   0  0  0  0  0  0  0  0  0  0  0  0
    0.8250  -18.4955  -87.5720 C   0  0  0  0  0  0  0  0  0  0  0  0
    0.0803  -18.5052  -88.7078 N   0  0  0  0  0  0  0  0  0  0  0  0
    2.3397  -14.9921  -97.8972 O   0  5  0  0  0  0  0  0  0  0  0  0
   -0.3851  -14.7149 -100.7210 O   0  0  0  0  0  0  0  0  0  0  0  0
    1.3429  -19.1787  -94.2191 S   0  0  0  0  0  0  0  0  0  0  0  0
    2.2195  -18.7195  -92.9242 C   0  0  0  0  0  0  0  0  0  0  0  0
    1.3676  -16.6708  -99.3683 O   0  0  0  0  0  0  0  0  0  0  0  0
    0.9667  -12.9477  -99.5667 O   0  5  0  0  0  0  0  0  0  0  0  0
    1.8356  -17.5177  -92.3599 N   0  0  0  0  0  0  0  0  0  0  0  0
   -0.1463  -14.7544  -98.2370 O   0  0  0  0  0  0  0  0  0  0  0  0
   -1.5226  -12.9474  -99.4564 O   0  0  0  0  0  0  0  0  0  0  0  0
    0.7711  -17.0189  -93.0696 C   0  0  1  0  0  0  0  0  0  0  0  0
    0.4208  -17.8782  -94.1229 C   0  0  2  0  0  0  0  0  0  0  0  0
   -0.6396  -17.8712  -95.1962 C   0  0  0  0  0  0  0  0  0  0  0  0
   -0.0185  -17.7500  -96.5919 C   0  0  0  0  0  0  0  0  0  0  0  0
    0.6027  -16.4775  -96.7243 O   0  0  0  0  0  0  0  0  0  0  0  0
  1 11  1  0  0  0  0
  3 13  1  1  0  0  0
  3 17  2  0  0  0  0
  3 20  1  0  0  0  0
  3 26  1  0  0  0  0
  4 14  1  6  0  0  0
  4 18  1  0  0  0  0
  4 21  2  0  0  0  0
  4 20  1  0  0  0  0
  5 19  1  0  0  0  0
  5  7  1  0  0  0  0
  6  7  2  0  0  0  0
  6 12  1  0  0  0  0
  7  8  1  0  0  0  0
  8  9  1  0  0  0  0
  8 10  2  0  0  0  0
 10 11  1  0  0  0  0
 11 12  2  0  0  0  0
 15 23  1  0  0  0  0
 15 16  1  0  0  0  0
 16 19  1  0  0  0  0
 19 22  1  0  0  0  0
 22  2  1  1  0  0  0
 22 23  1  0  0  0  0
 23 24  1  1  0  0  0
 24 25  1  0  0  0  0
 25 26  1  0  0  0  0
M  CHG  2  13  -1  18  -1
M  END
>  <CHROM.1>
71.87589096,-84.94416190,-22.66497315,58.78099706,-65.62379436,-65.98933289
-165.18569537,-145.74104299,0.89311514,-16.60773325,-94.48828387,0.59629402
-1.42548400,0.92908246

>  <Name>
ligand

>  <RI>
0

>  <Rbt.Current_Directory>
/home/itssahil/PROJECTS/Mol_Feturizer/New_Systems/rnas/2CKY

>  <Rbt.Executable>
rbdock ($Id: //depot/dev/client3/rdock/2013.1/src/exe/rbdock.cxx#4 $)

>  <Rbt.Library>
libRbt.so (2013.1, Build901 2013/11/27)

>  <Rbt.Parameter_File>
/export/apps/rDock/src/rDock_2013.1_src/data/scripts/dock_solv.prm

>  <Rbt.Receptor>
prm/pocket_docking_2.prm

>  <SCORE>
-18.2667

>  <SCORE.INTER>
-13.0235

>  <SCORE.INTER.CONST>
1

>  <SCORE.INTER.POLAR>
0

>  <SCORE.INTER.ROT>
8

>  <SCORE.INTER.SOLV>
18.9541

>  <SCORE.INTER.VDW>
-23.9337

>  <SCORE.INTER.norm>
-0.500905

>  <SCORE.INTRA>
-5.31464

>  <SCORE.INTRA.DIHEDRAL>
-8.27074

>  <SCORE.INTRA.DIHEDRAL.0>
16.4846

>  <SCORE.INTRA.POLAR>
0

>  <SCORE.INTRA.POLAR.0>
0

>  <SCORE.INTRA.REPUL>
0

>  <SCORE.INTRA.REPUL.0>
0

>  <SCORE.INTRA.SOLV>
-0.069124

>  <SCORE.INTRA.SOLV.lig_0>
-82.6983

>  <SCORE.INTRA.VDW>
-1.14471

>  <SCORE.INTRA.VDW.0>
-2.11466

>  <SCORE.INTRA.norm>
-0.204409

>  <SCORE.RESTR>
0.0714461

>  <SCORE.RESTR.CAVITY>
0.0714461

>  <SCORE.RESTR.norm>
0.00274793

>  <SCORE.SYSTEM>
0

>  <SCORE.SYSTEM.CONST>
0

>  <SCORE.SYSTEM.DIHEDRAL>
0

>  <SCORE.SYSTEM.SOLV>
0

>  <SCORE.SYSTEM.norm>
0

>  <SCORE.heavy>
26

>  <SCORE.norm>
-0.702567

>  <RMSD>
2.375

$$$$
ligand
 OpenBabel11021811423D
libRbt.so/2013.1/901 2013/11/27
 26 27  0  0  0  0  0  0  0  0999 V2000
    0.1234  -19.0164  -86.1580 C   0  0  0  0  0  0  0  0  0  0  0  0
    0.3071  -15.8737  -92.1511 C   0  0  0  0  0  0  0  0  0  0  0  0
   -1.7356  -16.3322  -97.7391 P   0  0  2  0  0  0  0  0  0  0  0  0
   -0.0874  -15.2338  -99.6749 P   0  0  2  0  0  0  0  0  0  0  0  0
    2.7690  -17.4798  -91.0061 C   0  0  0  0  0  0  0  0  0  0  0  0
    0.9187  -18.5650  -89.7575 C   0  0  0  0  0  0  0  0  0  0  0  0
    2.1014  -17.8386  -89.7083 C   0  0  0  0  0  0  0  0  0  0  0  0
    2.6466  -17.5210  -88.4608 C   0  0  0  0  0  0  0  0  0  0  0  0
    3.7807  -16.8412  -88.2896 N   0  0  0  0  0  0  0  0  0  0  0  0
    1.9880  -17.9185  -87.3261 N   0  0  0  0  0  0  0  0  0  0  0  0
    0.8153  -18.6154  -87.4062 C   0  0  0  0  0  0  0  0  0  0  0  0
    0.2699  -18.9505  -88.6041 N   0  0  0  0  0  0  0  0  0  0  0  0
   -1.1078  -17.7116  -97.7763 O   0  5  0  0  0  0  0  0  0  0  0  0
   -1.2848  -14.8798 -100.5279 O   0  0  0  0  0  0  0  0  0  0  0  0
    1.2164  -19.0643  -94.2383 S   0  0  0  0  0  0  0  0  0  0  0  0
    2.2371  -18.8891  -92.9799 C   0  0  0  0  0  0  0  0  0  0  0  0
   -2.9925  -16.4100  -98.6016 O   0  0  0  0  0  0  0  0  0  0  0  0
    0.4523  -16.6101 -100.0068 O   0  5  0  0  0  0  0  0  0  0  0  0
    1.9984  -17.7813  -92.1887 N   0  0  0  0  0  0  0  0  0  0  0  0
   -0.5916  -15.2751  -98.1632 O   0  0  0  0  0  0  0  0  0  0  0  0
    0.9771  -14.1771  -99.8895 O   0  0  0  0  0  0  0  0  0  0  0  0
    0.9167  -17.1040  -92.6955 C   0  0  1  0  0  0  0  0  0  0  0  0
    0.4093  -17.7461  -93.8360 C   0  0  2  0  0  0  0  0  0  0  0  0
   -0.7384  -17.4900  -94.7814 C   0  0  0  0  0  0  0  0  0  0  0  0
   -0.7994  -16.0163  -95.1969 C   0  0  0  0  0  0  0  0  0  0  0  0
   -1.8236  -15.8406  -96.1680 O   0  0  0  0  0  0  0  0  0  0  0  0
  1 11  1  0  0  0  0
  3 13  1  6  0  0  0
  3 17  2  0  0  0  0
  3 20  1  0  0  0  0
  3 26  1  0  0  0  0
  4 14  1  6  0  0  0
  4 18  1  0  0  0  0
  4 21  2  0  0  0  0
  4 20  1  0  0  0  0
  5 19  1  0  0  0  0
  5  7  1  0  0  0  0
  6  7  2  0  0  0  0
  6 12  1  0  0  0  0
  7  8  1  0  0  0  0
  8  9  1  0  0  0  0
  8 10  2  0  0  0  0
 10 11  1  0  0  0  0
 11 12  2  0  0  0  0
 15 23  1  0  0  0  0
 15 16  1  0  0  0  0
 16 19  1  0  0  0  0
 19 22  1  0  0  0  0
 22  2  1  1  0  0  0
 22 23  1  0  0  0  0
 23 24  1  1  0  0  0
 24 25  1  0  0  0  0
 25 26  1  0  0  0  0
M  CHG  2  13  -1  18  -1
M  END
>  <CHROM.1>
70.65635518,-101.43240838,8.08637889,61.17767458,-134.94457866,175.31818207
-73.27886622,42.03586141,0.32890346,-17.02578237,-94.27941624,1.34089173
0.19867047,1.84886213

>  <Name>
ligand

>  <RI>
0

>  <Rbt.Current_Directory>
/home/itssahil/PROJECTS/Mol_Feturizer/New_Systems/rnas/2CKY

>  <Rbt.Executable>
rbdock ($Id: //depot/dev/client3/rdock/2013.1/src/exe/rbdock.cxx#4 $)

>  <Rbt.Library>
libRbt.so (2013.1, Build901 2013/11/27)

>  <Rbt.Parameter_File>
/export/apps/rDock/src/rDock_2013.1_src/data/scripts/dock_solv.prm

>  <Rbt.Receptor>
prm/pocket_docking_3.prm

>  <SCORE>
-21.1673

>  <SCORE.INTER>
-15.5095

>  <SCORE.INTER.CONST>
1

>  <SCORE.INTER.POLAR>
0

>  <SCORE.INTER.ROT>
8

>  <SCORE.INTER.SOLV>
16.9864

>  <SCORE.INTER.VDW>
-24.9352

>  <SCORE.INTER.norm>
-0.59652

>  <SCORE.INTRA>
-5.65781

>  <SCORE.INTRA.DIHEDRAL>
-10.6002

>  <SCORE.INTRA.DIHEDRAL.0>
16.4846

>  <SCORE.INTRA.POLAR>
0

>  <SCORE.INTRA.POLAR.0>
0

>  <SCORE.INTRA.REPUL>
0

>  <SCORE.INTRA.REPUL.0>
0

>  <SCORE.INTRA.SOLV>
1.19141

>  <SCORE.INTRA.SOLV.lig_0>
-82.6983

>  <SCORE.INTRA.VDW>
-0.953393

>  <SCORE.INTRA.VDW.0>
-2.11466

>  <SCORE.INTRA.norm>
-0.217608

>  <SCORE.RESTR>
0

>  <SCORE.RESTR.CAVITY>
0

>  <SCORE.RESTR.norm>
0

>  <SCORE.SYSTEM>
0

>  <SCORE.SYSTEM.CONST>
0

>  <SCORE.SYSTEM.DIHEDRAL>
0

>  <SCORE.SYSTEM.SOLV>
0

>  <SCORE.SYSTEM.norm>
0

>  <SCORE.heavy>
26

>  <SCORE.norm>
-0.814128

>  <RMSD>
2.398

$$$$
ligand
 OpenBabel11021811423D
libRbt.so/2013.1/901 2013/11/27
 26 27  0  0  0  0  0  0  0  0999 V2000
   -0.1025  -19.0783  -86.1465 C   0  0  0  0  0  0  0  0  0  0  0  0
    2.4735  -17.6696  -94.1567 C   0  0  0  0  0  0  0  0  0  0  0  0
   -0.0242  -18.3785  -97.5067 P   0  0  2  0  0  0  0  0  0  0  0  0
    2.0567  -17.3941  -99.0468 P   0  0  2  0  0  0  0  0  0  0  0  0
    2.5671  -17.6144  -91.0040 C   0  0  0  0  0  0  0  0  0  0  0  0
    0.6844  -18.6345  -89.7488 C   0  0  0  0  0  0  0  0  0  0  0  0
    1.8951  -17.9554  -89.7037 C   0  0  0  0  0  0  0  0  0  0  0  0
    2.4611  -17.6678  -88.4582 C   0  0  0  0  0  0  0  0  0  0  0  0
    3.6223  -17.0342  -88.2910 N   0  0  0  0  0  0  0  0  0  0  0  0
    1.7954  -18.0467  -87.3212 N   0  0  0  0  0  0  0  0  0  0  0  0
    0.5957  -18.6965  -87.3971 C   0  0  0  0  0  0  0  0  0  0  0  0
    0.0291  -19.0019  -88.5931 N   0  0  0  0  0  0  0  0  0  0  0  0
   -0.3065  -19.6223  -96.6874 O   0  5  0  0  0  0  0  0  0  0  0  0
    2.4822  -16.3557  -98.0333 O   0  0  0  0  0  0  0  0  0  0  0  0
    0.2745  -14.8430  -92.5635 S   0  0  0  0  0  0  0  0  0  0  0  0
    1.0100  -15.7225  -91.4051 C   0  0  0  0  0  0  0  0  0  0  0  0
   -1.2490  -18.1607  -98.3912 O   0  0  0  0  0  0  0  0  0  0  0  0
    0.9965  -16.8597  -99.9881 O   0  5  0  0  0  0  0  0  0  0  0  0
    1.8032  -16.7525  -91.8741 N   0  0  0  0  0  0  0  0  0  0  0  0
    1.4021  -18.5969  -98.2307 O   0  0  0  0  0  0  0  0  0  0  0  0
    3.2837  -17.8338  -99.8192 O   0  0  0  0  0  0  0  0  0  0  0  0
    1.7593  -16.7513  -93.2465 C   0  0  1  0  0  0  0  0  0  0  0  0
    0.9362  -15.7191  -93.7235 C   0  0  2  0  0  0  0  0  0  0  0  0
    0.5279  -15.2267  -95.0899 C   0  0  0  0  0  0  0  0  0  0  0  0
   -0.3387  -16.2597  -95.8182 C   0  0  0  0  0  0  0  0  0  0  0  0
    0.5001  -17.1913  -96.4902 O   0  0  0  0  0  0  0  0  0  0  0  0
  1 11  1  0  0  0  0
  3 13  1  1  0  0  0
  3 17  2  0  0  0  0
  3 20  1  0  0  0  0
  3 26  1  0  0  0  0
  4 14  1  1  0  0  0
  4 18  1  0  0  0  0
  4 21  2  0  0  0  0
  4 20  1  0  0  0  0
  5 19  1  0  0  0  0
  5  7  1  0  0  0  0
  6  7  2  0  0  0  0
  6 12  1  0  0  0  0
  7  8  1  0  0  0  0
  8  9  1  0  0  0  0
  8 10  2  0  0  0  0
 10 11  1  0  0  0  0
 11 12  2  0  0  0  0
 15 23  1  0  0  0  0
 15 16  1  0  0  0  0
 16 19  1  0  0  0  0
 19 22  1  0  0  0  0
 22  2  1  6  0  0  0
 22 23  1  0  0  0  0
 23 24  1  6  0  0  0
 24 25  1  0  0  0  0
 25 26  1  0  0  0  0
M  CHG  2  13  -1  18  -1
M  END
>  <CHROM.1>
-173.49048843,36.74480451,61.00261212,69.84589206,-113.63069902,-85.67302091
-173.93031299,-89.25019018,1.13222497,-17.37262367,-94.01212285,1.53731453
1.02268883,1.62614974

>  <Name>
ligand

>  <RI>
0

>  <Rbt.Current_Directory>
/home/itssahil/PROJECTS/Mol_Feturizer/New_Systems/rnas/2CKY

>  <Rbt.Executable>
rbdock ($Id: //depot/dev/client3/rdock/2013.1/src/exe/rbdock.cxx#4 $)

>  <Rbt.Library>
libRbt.so (2013.1, Build901 2013/11/27)

>  <Rbt.Parameter_File>
/export/apps/rDock/src/rDock_2013.1_src/data/scripts/dock_solv.prm

>  <Rbt.Receptor>
prm/pocket_docking_4.prm

>  <SCORE>
-20.3493

>  <SCORE.INTER>
-14.0744

>  <SCORE.INTER.CONST>
1

>  <SCORE.INTER.POLAR>
0

>  <SCORE.INTER.ROT>
8

>  <SCORE.INTER.SOLV>
20.2303

>  <SCORE.INTER.VDW>
-25.0597

>  <SCORE.INTER.norm>
-0.541325

>  <SCORE.INTRA>
-6.2749

>  <SCORE.INTRA.DIHEDRAL>
-8.57259

>  <SCORE.INTRA.DIHEDRAL.0>
16.4846

>  <SCORE.INTRA.POLAR>
0

>  <SCORE.INTRA.POLAR.0>
0

>  <SCORE.INTRA.REPUL>
0

>  <SCORE.INTRA.REPUL.0>
0

>  <SCORE.INTRA.SOLV>
-0.33783

>  <SCORE.INTRA.SOLV.lig_0>
-82.6983

>  <SCORE.INTRA.VDW>
-1.81969

>  <SCORE.INTRA.VDW.0>
-2.11466

>  <SCORE.INTRA.norm>
-0.241342

>  <SCORE.RESTR>
0

>  <SCORE.RESTR.CAVITY>
0

>  <SCORE.RESTR.norm>
0

>  <SCORE.SYSTEM>
0

>  <SCORE.SYSTEM.CONST>
0

>  <SCORE.SYSTEM.DIHEDRAL>
0

>  <SCORE.SYSTEM.SOLV>
0

>  <SCORE.SYSTEM.norm>
0

>  <SCORE.heavy>
26

>  <SCORE.norm>
-0.782667

>  <RMSD>
2.409

$$$$
ligand
 OpenBabel11021811423D
libRbt.so/2013.1/901 2013/11/27
 26 27  0  0  0  0  0  0  0  0999 V2000
    0.1803  -19.1234  -86.2978 C   0  0  0  0  0  0  0  0  0  0  0  0
   -0.1917  -15.9092  -92.8723 C   0  0  0  0  0  0  0  0  0  0  0  0
    0.6542  -15.8365  -98.2347 P   0  0  2  0  0  0  0  0  0  0  0  0
   -0.5111  -13.6456  -99.4645 P   0  0  2  0  0  0  0  0  0  0  0  0
    2.2585  -16.9430  -91.1755 C   0  0  0  0  0  0  0  0  0  0  0  0
    0.4508  -17.9653  -89.8161 C   0  0  0  0  0  0  0  0  0  0  0  0
    1.7524  -17.4834  -89.8676 C   0  0  0  0  0  0  0  0  0  0  0  0
    2.5498  -17.5709  -88.7227 C   0  0  0  0  0  0  0  0  0  0  0  0
    3.8147  -17.1544  -88.6568 N   0  0  0  0  0  0  0  0  0  0  0  0
    2.0175  -18.1107  -87.5806 N   0  0  0  0  0  0  0  0  0  0  0  0
    0.7268  -18.5587  -87.5547 C   0  0  0  0  0  0  0  0  0  0  0  0
   -0.0664  -18.4998  -88.6557 N   0  0  0  0  0  0  0  0  0  0  0  0
    2.1033  -15.4585  -97.9996 O   0  5  0  0  0  0  0  0  0  0  0  0
   -1.1393  -14.6014 -100.4538 O   0  0  0  0  0  0  0  0  0  0  0  0
    1.3123  -19.2875  -94.1716 S   0  0  0  0  0  0  0  0  0  0  0  0
    2.1379  -18.7512  -92.8728 C   0  0  0  0  0  0  0  0  0  0  0  0
    0.6219  -16.6150  -99.5473 O   0  0  0  0  0  0  0  0  0  0  0  0
    0.8150  -13.1100  -99.9646 O   0  5  0  0  0  0  0  0  0  0  0  0
    1.6830  -17.5560  -92.3488 N   0  0  0  0  0  0  0  0  0  0  0  0
   -0.2150  -14.4796  -98.1387 O   0  0  0  0  0  0  0  0  0  0  0  0
   -1.4852  -12.5119  -99.2162 O   0  0  0  0  0  0  0  0  0  0  0  0
    0.6100  -17.1300  -93.0923 C   0  0  1  0  0  0  0  0  0  0  0  0
    0.3248  -18.0330  -94.1285 C   0  0  2  0  0  0  0  0  0  0  0  0
   -0.7121  -18.1073  -95.2221 C   0  0  0  0  0  0  0  0  0  0  0  0
   -0.0819  -17.8940  -96.6025 C   0  0  0  0  0  0  0  0  0  0  0  0
    0.0561  -16.5001  -96.8493 O   0  0  0  0  0  0  0  0  0  0  0  0
  1 11  1  0  0  0  0
  3 13  1  1  0  0  0
  3 17  2  0  0  0  0
  3 20  1  0  0  0  0
  3 26  1  0  0  0  0
  4 14  1  6  0  0  0
  4 18  1  0  0  0  0
  4 21  2  0  0  0  0
  4 20  1  0  0  0  0
  5 19  1  0  0  0  0
  5  7  1  0  0  0  0
  6  7  2  0  0  0  0
  6 12  1  0  0  0  0
  7  8  1  0  0  0  0
  8  9  1  0  0  0  0
  8 10  2  0  0  0  0
 10 11  1  0  0  0  0
 11 12  2  0  0  0  0
 15 23  1  0  0  0  0
 15 16  1  0  0  0  0
 16 19  1  0  0  0  0
 19 22  1  0  0  0  0
 22  2  1  1  0  0  0
 22 23  1  0  0  0  0
 23 24  1  1  0  0  0
 24 25  1  0  0  0  0
 25 26  1  0  0  0  0
M  CHG  2  13  -1  18  -1
M  END
>  <CHROM.1>
92.13474578,-82.52734710,-30.42081326,54.10091867,-69.57574713,-82.79956279
-178.34424948,-99.48926797,0.68388344,-16.63927947,-94.49628697,0.76246562
-1.37932125,1.11219971

>  <Name>
ligand

>  <RI>
0

>  <Rbt.Current_Directory>
/home/itssahil/PROJECTS/Mol_Feturizer/New_Systems/rnas/2CKY

>  <Rbt.Executable>
rbdock ($Id: //depot/dev/client3/rdock/2013.1/src/exe/rbdock.cxx#4 $)

>  <Rbt.Library>
libRbt.so (2013.1, Build901 2013/11/27)

>  <Rbt.Parameter_File>
/export/apps/rDock/src/rDock_2013.1_src/data/scripts/dock_solv.prm

>  <Rbt.Receptor>
prm/pocket_docking_2.prm

>  <SCORE>
-17.3304

>  <SCORE.INTER>
-13.1113

>  <SCORE.INTER.CONST>
1

>  <SCORE.INTER.POLAR>
0

>  <SCORE.INTER.ROT>
8

>  <SCORE.INTER.SOLV>
19.672

>  <SCORE.INTER.VDW>
-24.2315

>  <SCORE.INTER.norm>
-0.504279

>  <SCORE.INTRA>
-4.62479

>  <SCORE.INTRA.DIHEDRAL>
-6.80884

>  <SCORE.INTRA.DIHEDRAL.0>
16.4846

>  <SCORE.INTRA.POLAR>
0

>  <SCORE.INTRA.POLAR.0>
0

>  <SCORE.INTRA.REPUL>
0

>  <SCORE.INTRA.REPUL.0>
0

>  <SCORE.INTRA.SOLV>
-0.094187

>  <SCORE.INTRA.SOLV.lig_0>
-82.6983

>  <SCORE.INTRA.VDW>
-1.17328

>  <SCORE.INTRA.VDW.0>
-2.11466

>  <SCORE.INTRA.norm>
-0.177877

>  <SCORE.RESTR>
0.405633

>  <SCORE.RESTR.CAVITY>
0.405633

>  <SCORE.RESTR.norm>
0.0156013

>  <SCORE.SYSTEM>
0

>  <SCORE.SYSTEM.CONST>
0

>  <SCORE.SYSTEM.DIHEDRAL>
0

>  <SCORE.SYSTEM.SOLV>
0

>  <SCORE.SYSTEM.norm>
0

>  <SCORE.heavy>
26

>  <SCORE.norm>
-0.666554

>  <RMSD>
2.413

$$$$
ligand
 OpenBabel11021811423D
libRbt.so/2013.1/901 2013/11/27
 26 27  0  0  0  0  0  0  0  0999 V2000
    0.3091  -19.0221  -86.1015 C   0  0  0  0  0  0  0  0  0  0  0  0
   -0.0478  -15.8638  -92.7727 C   0  0  0  0  0  0  0  0  0  0  0  0
    1.3682  -16.0873  -98.1106 P   0  0  2  0  0  0  0  0  0  0  0  0
    4.0270  -15.5934  -98.7085 P   0  0  2  0  0  0  0  0  0  0  0  0
    2.3298  -17.1052  -91.1122 C   0  0  0  0  0  0  0  0  0  0  0  0
    2.5376  -17.5425  -88.6779 C   0  0  0  0  0  0  0  0  0  0  0  0
    1.7650  -17.6432  -89.8276 C   0  0  0  0  0  0  0  0  0  0  0  0
    0.4809  -18.1875  -89.7319 C   0  0  0  0  0  0  0  0  0  0  0  0
   -0.3547  -18.3224  -90.7621 N   0  0  0  0  0  0  0  0  0  0  0  0
    0.0318  -18.6225  -88.5118 N   0  0  0  0  0  0  0  0  0  0  0  0
    0.8226  -18.5283  -87.4015 C   0  0  0  0  0  0  0  0  0  0  0  0
    2.0684  -17.9908  -87.4617 N   0  0  0  0  0  0  0  0  0  0  0  0
    1.1469  -16.9061  -99.3671 O   0  5  0  0  0  0  0  0  0  0  0  0
    4.0702  -16.4788  -99.9336 O   0  0  0  0  0  0  0  0  0  0  0  0
    1.2637  -19.2697  -94.2020 S   0  0  0  0  0  0  0  0  0  0  0  0
    2.1127  -18.8344  -92.8806 C   0  0  0  0  0  0  0  0  0  0  0  0
    0.8115  -14.6962  -98.4020 O   0  0  0  0  0  0  0  0  0  0  0  0
    5.3476  -15.5963  -97.9658 O   0  5  0  0  0  0  0  0  0  0  0  0
    1.7255  -17.6365  -92.3105 N   0  0  0  0  0  0  0  0  0  0  0  0
    2.9318  -16.2114  -97.7288 O   0  0  0  0  0  0  0  0  0  0  0  0
    3.6659  -14.1897  -99.1501 O   0  0  0  0  0  0  0  0  0  0  0  0
    0.6827  -17.1196  -93.0391 C   0  0  1  0  0  0  0  0  0  0  0  0
    0.3506  -17.9625  -94.1114 C   0  0  2  0  0  0  0  0  0  0  0  0
   -0.6835  -17.9328  -95.2097 C   0  0  0  0  0  0  0  0  0  0  0  0
   -0.4321  -16.7738  -96.1801 C   0  0  0  0  0  0  0  0  0  0  0  0
    0.8256  -16.9559  -96.8188 O   0  0  0  0  0  0  0  0  0  0  0  0
  1 11  1  0  0  0  0
  3 13  1  6  0  0  0
  3 17  2  0  0  0  0
  3 20  1  0  0  0  0
  3 26  1  0  0  0  0
  4 14  1  6  0  0  0
  4 18  1  0  0  0  0
  4 21  2  0  0  0  0
  4 20  1  0  0  0  0
  5 19  1  0  0  0  0
  5  7  1  0  0  0  0
  6  7  2  0  0  0  0
  6 12  1  0  0  0  0
  7  8  1  0  0  0  0
  8  9  1  0  0  0  0
  8 10  2  0  0  0  0
 10 11  1  0  0  0  0
 11 12  2  0  0  0  0
 15 23  1  0  0  0  0
 15 16  1  0  0  0  0
 16 19  1  0  0  0  0
 19 22  1  0  0  0  0
 22  2  1  1  0  0  0
 22 23  1  0  0  0  0
 23 24  1  1  0  0  0
 24 25  1  0  0  0  0
 25 26  1  0  0  0  0
M  CHG  2  13  -1  18  -1
M  END
>  <CHROM.1>
65.53614135,-83.87693899,159.33044212,-71.73533347,-114.25650640,62.72869318
169.10193222,-99.64032728,1.63321704,-17.10549061,-94.34823431,-1.75923774
-0.29778631,-1.38116453

>  <Name>
ligand

>  <RI>
0

>  <Rbt.Current_Directory>
/home/itssahil/PROJECTS/Mol_Feturizer/New_Systems/rnas/2CKY

>  <Rbt.Executable>
rbdock ($Id: //depot/dev/client3/rdock/2013.1/src/exe/rbdock.cxx#4 $)

>  <Rbt.Library>
libRbt.so (2013.1, Build901 2013/11/27)

>  <Rbt.Parameter_File>
/export/apps/rDock/src/rDock_2013.1_src/data/scripts/dock_solv.prm

>  <Rbt.Receptor>
prm/pocket_docking_3.prm

>  <SCORE>
-20.1988

>  <SCORE.INTER>
-15.8946

>  <SCORE.INTER.CONST>
1

>  <SCORE.INTER.POLAR>
0

>  <SCORE.INTER.ROT>
8

>  <SCORE.INTER.SOLV>
11.0962

>  <SCORE.INTER.VDW>
-23.2285

>  <SCORE.INTER.norm>
-0.611331

>  <SCORE.INTRA>
-4.30418

>  <SCORE.INTRA.DIHEDRAL>
-9.68486

>  <SCORE.INTRA.DIHEDRAL.0>
16.4846

>  <SCORE.INTRA.POLAR>
0

>  <SCORE.INTRA.POLAR.0>
0

>  <SCORE.INTRA.REPUL>
0

>  <SCORE.INTRA.REPUL.0>
0

>  <SCORE.INTRA.SOLV>
5.03674

>  <SCORE.INTRA.SOLV.lig_0>
-82.6983

>  <SCORE.INTRA.VDW>
-1.98012

>  <SCORE.INTRA.VDW.0>
-2.11466

>  <SCORE.INTRA.norm>
-0.165545

>  <SCORE.RESTR>
0

>  <SCORE.RESTR.CAVITY>
0

>  <SCORE.RESTR.norm>
0

>  <SCORE.SYSTEM>
0

>  <SCORE.SYSTEM.CONST>
0

>  <SCORE.SYSTEM.DIHEDRAL>
0

>  <SCORE.SYSTEM.SOLV>
0

>  <SCORE.SYSTEM.norm>
0

>  <SCORE.heavy>
26

>  <SCORE.norm>
-0.776876

>  <RMSD>
2.429

$$$$
ligand
 OpenBabel11021811423D
libRbt.so/2013.1/901 2013/11/27
 26 27  0  0  0  0  0  0  0  0999 V2000
    0.3999  -19.6585  -86.8374 C   0  0  0  0  0  0  0  0  0  0  0  0
   -0.1460  -15.3067  -94.1741 C   0  0  0  0  0  0  0  0  0  0  0  0
    1.8445  -15.5915  -99.3422 P   0  0  2  0  0  0  0  0  0  0  0  0
   -0.5108  -14.1685  -99.6555 P   0  0  2  0  0  0  0  0  0  0  0  0
    1.0311  -16.2500  -91.4035 C   0  0  0  0  0  0  0  0  0  0  0  0
   -0.3259  -17.6802  -89.8956 C   0  0  0  0  0  0  0  0  0  0  0  0
    0.9113  -17.1178  -90.1823 C   0  0  0  0  0  0  0  0  0  0  0  0
    1.9987  -17.4246  -89.3592 C   0  0  0  0  0  0  0  0  0  0  0  0
    3.2334  -16.9560  -89.5428 N   0  0  0  0  0  0  0  0  0  0  0  0
    1.8069  -18.2540  -88.2846 N   0  0  0  0  0  0  0  0  0  0  0  0
    0.5732  -18.7767  -88.0164 C   0  0  0  0  0  0  0  0  0  0  0  0
   -0.4981  -18.5078  -88.8069 N   0  0  0  0  0  0  0  0  0  0  0  0
    2.1527  -14.2808  -98.6456 O   0  5  0  0  0  0  0  0  0  0  0  0
   -0.5577  -14.0427  -98.1493 O   0  0  0  0  0  0  0  0  0  0  0  0
    1.4723  -18.8750  -94.2816 S   0  0  0  0  0  0  0  0  0  0  0  0
    1.5938  -18.2322  -92.7889 C   0  0  0  0  0  0  0  0  0  0  0  0
    3.0141  -15.8611 -100.2851 O   0  0  0  0  0  0  0  0  0  0  0  0
   -1.8875  -14.4032 -100.2432 O   0  5  0  0  0  0  0  0  0  0  0  0
    1.0561  -16.9659  -92.6566 N   0  0  0  0  0  0  0  0  0  0  0  0
    0.3703  -15.4553  -99.9857 O   0  0  0  0  0  0  0  0  0  0  0  0
    0.1011  -12.9019 -100.2186 O   0  0  0  0  0  0  0  0  0  0  0  0
    0.5383  -16.5795  -93.8682 C   0  0  1  0  0  0  0  0  0  0  0  0
    0.7184  -17.5806  -94.8356 C   0  0  2  0  0  0  0  0  0  0  0  0
    0.3571  -17.7321  -96.2926 C   0  0  0  0  0  0  0  0  0  0  0  0
    0.6002  -16.4310  -97.0649 C   0  0  0  0  0  0  0  0  0  0  0  0
    1.4119  -16.7001  -98.2014 O   0  0  0  0  0  0  0  0  0  0  0  0
  1 11  1  0  0  0  0
  3 13  1  1  0  0  0
  3 17  2  0  0  0  0
  3 20  1  0  0  0  0
  3 26  1  0  0  0  0
  4 14  1  1  0  0  0
  4 18  1  0  0  0  0
  4 21  2  0  0  0  0
  4 20  1  0  0  0  0
  5 19  1  0  0  0  0
  5  7  1  0  0  0  0
  6  7  2  0  0  0  0
  6 12  1  0  0  0  0
  7  8  1  0  0  0  0
  8  9  1  0  0  0  0
  8 10  2  0  0  0  0
 10 11  1  0  0  0  0
 11 12  2  0  0  0  0
 15 23  1  0  0  0  0
 15 16  1  0  0  0  0
 16 19  1  0  0  0  0
 19 22  1  0  0  0  0
 22  2  1  1  0  0  0
 22 23  1  0  0  0  0
 23 24  1  1  0  0  0
 24 25  1  0  0  0  0
 25 26  1  0  0  0  0
M  CHG  2  13  -1  18  -1
M  END
>  <CHROM.1>
-7.29628713,-31.48860973,-75.15611431,-52.79847433,-139.06771756,127.35609462
176.66677467,39.67761465,0.82359164,-16.47335324,-95.01394048,1.51487070
-0.65858214,1.85497011

>  <Name>
ligand

>  <RI>
0

>  <Rbt.Current_Directory>
/home/itssahil/PROJECTS/Mol_Feturizer/New_Systems/rnas/2CKY

>  <Rbt.Executable>
rbdock ($Id: //depot/dev/client3/rdock/2013.1/src/exe/rbdock.cxx#4 $)

>  <Rbt.Library>
libRbt.so (2013.1, Build901 2013/11/27)

>  <Rbt.Parameter_File>
/export/apps/rDock/src/rDock_2013.1_src/data/scripts/dock_solv.prm

>  <Rbt.Receptor>
prm/pocket_docking_2.prm

>  <SCORE>
-9.86845

>  <SCORE.INTER>
-8.02527

>  <SCORE.INTER.CONST>
1

>  <SCORE.INTER.POLAR>
0

>  <SCORE.INTER.ROT>
8

>  <SCORE.INTER.SOLV>
16.9463

>  <SCORE.INTER.VDW>
-19.9323

>  <SCORE.INTER.norm>
-0.308664

>  <SCORE.INTRA>
-1.95373

>  <SCORE.INTRA.DIHEDRAL>
-3.73882

>  <SCORE.INTRA.DIHEDRAL.0>
16.4846

>  <SCORE.INTRA.POLAR>
0

>  <SCORE.INTRA.POLAR.0>
0

>  <SCORE.INTRA.REPUL>
0

>  <SCORE.INTRA.REPUL.0>
0

>  <SCORE.INTRA.SOLV>
0.47494

>  <SCORE.INTRA.SOLV.lig_0>
-82.6983

>  <SCORE.INTRA.VDW>
-0.321796

>  <SCORE.INTRA.VDW.0>
-2.11466

>  <SCORE.INTRA.norm>
-0.0751436

>  <SCORE.RESTR>
0.110552

>  <SCORE.RESTR.CAVITY>
0.110552

>  <SCORE.RESTR.norm>
0.00425201

>  <SCORE.SYSTEM>
0

>  <SCORE.SYSTEM.CONST>
0

>  <SCORE.SYSTEM.DIHEDRAL>
0

>  <SCORE.SYSTEM.SOLV>
0

>  <SCORE.SYSTEM.norm>
0

>  <SCORE.heavy>
26

>  <SCORE.norm>
-0.379556

>  <RMSD>
2.455

$$$$
ligand
 OpenBabel11021811423D
libRbt.so/2013.1/901 2013/11/27
 26 27  0  0  0  0  0  0  0  0999 V2000
   -0.5348  -19.6654  -86.0132 C   0  0  0  0  0  0  0  0  0  0  0  0
    2.1889  -19.1656  -92.6160 C   0  0  0  0  0  0  0  0  0  0  0  0
    1.7845  -15.3785  -97.0262 P   0  0  2  0  0  0  0  0  0  0  0  0
    4.4203  -14.6243  -97.4191 P   0  0  2  0  0  0  0  0  0  0  0  0
    2.4412  -17.1392  -90.2116 C   0  0  0  0  0  0  0  0  0  0  0  0
    2.2153  -18.0452  -87.9119 C   0  0  0  0  0  0  0  0  0  0  0  0
    1.6274  -17.8259  -89.1510 C   0  0  0  0  0  0  0  0  0  0  0  0
    0.2943  -18.2013  -89.3410 C   0  0  0  0  0  0  0  0  0  0  0  0
   -0.3778  -18.0292  -90.4796 N   0  0  0  0  0  0  0  0  0  0  0  0
   -0.3849  -18.7913  -88.3066 N   0  0  0  0  0  0  0  0  0  0  0  0
    0.2264  -19.0120  -87.1046 C   0  0  0  0  0  0  0  0  0  0  0  0
    1.5157  -18.6447  -86.8866 N   0  0  0  0  0  0  0  0  0  0  0  0
    1.8702  -15.7887  -98.4831 O   0  5  0  0  0  0  0  0  0  0  0  0
    4.2086  -14.5995  -98.9161 O   0  0  0  0  0  0  0  0  0  0  0  0
    0.4561  -15.7124  -93.2762 S   0  0  0  0  0  0  0  0  0  0  0  0
    1.1260  -15.7460  -91.7909 C   0  0  0  0  0  0  0  0  0  0  0  0
    0.3606  -14.8748  -96.8058 O   0  0  0  0  0  0  0  0  0  0  0  0
    4.8944  -15.9815  -96.9406 O   0  5  0  0  0  0  0  0  0  0  0  0
    1.7549  -16.9326  -91.4644 N   0  0  0  0  0  0  0  0  0  0  0  0
    3.0007  -14.3546  -96.7460 O   0  0  0  0  0  0  0  0  0  0  0  0
    5.4295  -13.5511  -97.0648 O   0  0  0  0  0  0  0  0  0  0  0  0
    1.6452  -17.7951  -92.5272 C   0  0  1  0  0  0  0  0  0  0  0  0
    0.9412  -17.2020  -93.5870 C   0  0  2  0  0  0  0  0  0  0  0  0
    0.5348  -17.6383  -94.9730 C   0  0  0  0  0  0  0  0  0  0  0  0
    1.7581  -17.8493  -95.8715 C   0  0  0  0  0  0  0  0  0  0  0  0
    2.3963  -16.5995  -96.1029 O   0  0  0  0  0  0  0  0  0  0  0  0
  1 11  1  0  0  0  0
  3 13  1  6  0  0  0
  3 17  2  0  0  0  0
  3 20  1  0  0  0  0
  3 26  1  0  0  0  0
  4 14  1  6  0  0  0
  4 18  1  0  0  0  0
  4 21  2  0  0  0  0
  4 20  1  0  0  0  0
  5 19  1  0  0  0  0
  5  7  1  0  0  0  0
  6  7  2  0  0  0  0
  6 12  1  0  0  0  0
  7  8  1  0  0  0  0
  8  9  1  0  0  0  0
  8 10  2  0  0  0  0
 10 11  1  0  0  0  0
 11 12  2  0  0  0  0
 15 23  1  0  0  0  0
 15 16  1  0  0  0  0
 16 19  1  0  0  0  0
 19 22  1  0  0  0  0
 22  2  1  6  0  0  0
 22 23  1  0  0  0  0
 23 24  1  6  0  0  0
 24 25  1  0  0  0  0
 25 26  1  0  0  0  0
M  CHG  2  13  -1  18  -1
M  END
>  <CHROM.1>
-39.00044912,96.31947821,-179.23743965,60.59628072,113.94417900,-66.78064487
-70.20305959,-72.10052042,1.87626985,-16.61254166,-93.54026281,1.84824722
0.28366099,1.85376147

>  <Name>
ligand

>  <RI>
0

>  <Rbt.Current_Directory>
/home/itssahil/PROJECTS/Mol_Feturizer/New_Systems/rnas/2CKY

>  <Rbt.Executable>
rbdock ($Id: //depot/dev/client3/rdock/2013.1/src/exe/rbdock.cxx#4 $)

>  <Rbt.Library>
libRbt.so (2013.1, Build901 2013/11/27)

>  <Rbt.Parameter_File>
/export/apps/rDock/src/rDock_2013.1_src/data/scripts/dock_solv.prm

>  <Rbt.Receptor>
prm/pocket_docking_6.prm

>  <SCORE>
-20.4655

>  <SCORE.INTER>
-16.1712

>  <SCORE.INTER.CONST>
1

>  <SCORE.INTER.POLAR>
0

>  <SCORE.INTER.ROT>
8

>  <SCORE.INTER.SOLV>
13.8399

>  <SCORE.INTER.VDW>
-24.3274

>  <SCORE.INTER.norm>
-0.62197

>  <SCORE.INTRA>
-4.29425

>  <SCORE.INTRA.DIHEDRAL>
-10.5181

>  <SCORE.INTRA.DIHEDRAL.0>
16.4846

>  <SCORE.INTRA.POLAR>
0

>  <SCORE.INTRA.POLAR.0>
0

>  <SCORE.INTRA.REPUL>
0

>  <SCORE.INTRA.REPUL.0>
0

>  <SCORE.INTRA.SOLV>
6.32687

>  <SCORE.INTRA.SOLV.lig_0>
-82.6983

>  <SCORE.INTRA.VDW>
-2.19865

>  <SCORE.INTRA.VDW.0>
-2.11466

>  <SCORE.INTRA.norm>
-0.165163

>  <SCORE.RESTR>
0

>  <SCORE.RESTR.CAVITY>
0

>  <SCORE.RESTR.norm>
0

>  <SCORE.SYSTEM>
0

>  <SCORE.SYSTEM.CONST>
0

>  <SCORE.SYSTEM.DIHEDRAL>
0

>  <SCORE.SYSTEM.SOLV>
0

>  <SCORE.SYSTEM.norm>
0

>  <SCORE.heavy>
26

>  <SCORE.norm>
-0.787134

>  <RMSD>
2.494

$$$$
ligand
 OpenBabel11021811423D
libRbt.so/2013.1/901 2013/11/27
 26 27  0  0  0  0  0  0  0  0999 V2000
   -0.3297  -19.4343  -85.6342 C   0  0  0  0  0  0  0  0  0  0  0  0
    0.5400  -15.6198  -92.1849 C   0  0  0  0  0  0  0  0  0  0  0  0
   -0.6481  -15.5323  -97.4443 P   0  0  2  0  0  0  0  0  0  0  0  0
    0.2746  -14.1313  -99.6479 P   0  0  2  0  0  0  0  0  0  0  0  0
    2.3278  -17.3951  -90.2866 C   0  0  0  0  0  0  0  0  0  0  0  0
    2.3117  -18.2213  -87.9462 C   0  0  0  0  0  0  0  0  0  0  0  0
    1.5895  -17.9503  -89.1011 C   0  0  0  0  0  0  0  0  0  0  0  0
    0.2062  -18.1524  -89.0948 C   0  0  0  0  0  0  0  0  0  0  0  0
   -0.5907  -17.9153  -90.1371 N   0  0  0  0  0  0  0  0  0  0  0  0
   -0.3913  -18.6296  -87.9570 N   0  0  0  0  0  0  0  0  0  0  0  0
    0.3485  -18.9058  -86.8418 C   0  0  0  0  0  0  0  0  0  0  0  0
    1.6916  -18.7055  -86.8144 N   0  0  0  0  0  0  0  0  0  0  0  0
   -2.1622  -15.4742  -97.4913 O   0  5  0  0  0  0  0  0  0  0  0  0
   -0.9663  -13.2672  -99.6385 O   0  0  0  0  0  0  0  0  0  0  0  0
    1.2018  -19.2288  -93.5635 S   0  0  0  0  0  0  0  0  0  0  0  0
    1.9486  -19.0135  -92.1310 C   0  0  0  0  0  0  0  0  0  0  0  0
   -0.2040  -14.3979  -96.5246 O   0  0  0  0  0  0  0  0  0  0  0  0
    0.7373  -14.4355 -101.0583 O   0  5  0  0  0  0  0  0  0  0  0  0
    1.7785  -17.7620  -91.5700 N   0  0  0  0  0  0  0  0  0  0  0  0
   -0.1219  -15.5186  -98.9703 O   0  0  0  0  0  0  0  0  0  0  0  0
    1.3600  -13.4113  -98.8738 O   0  0  0  0  0  0  0  0  0  0  0  0
    0.9881  -17.0101  -92.4040 C   0  0  1  0  0  0  0  0  0  0  0  0
    0.6126  -17.7446  -93.5398 C   0  0  2  0  0  0  0  0  0  0  0  0
   -0.2341  -17.4660  -94.7572 C   0  0  0  0  0  0  0  0  0  0  0  0
    0.6038  -17.5068  -96.0395 C   0  0  0  0  0  0  0  0  0  0  0  0
   -0.1943  -17.0876  -97.1396 O   0  0  0  0  0  0  0  0  0  0  0  0
  1 11  1  0  0  0  0
  3 13  1  6  0  0  0
  3 17  2  0  0  0  0
  3 20  1  0  0  0  0
  3 26  1  0  0  0  0
  4 14  1  6  0  0  0
  4 18  1  0  0  0  0
  4 21  2  0  0  0  0
  4 20  1  0  0  0  0
  5 19  1  0  0  0  0
  5  7  1  0  0  0  0
  6  7  2  0  0  0  0
  6 12  1  0  0  0  0
  7  8  1  0  0  0  0
  8  9  1  0  0  0  0
  8 10  2  0  0  0  0
 10 11  1  0  0  0  0
 11 12  2  0  0  0  0
 15 23  1  0  0  0  0
 15 16  1  0  0  0  0
 16 19  1  0  0  0  0
 19 22  1  0  0  0  0
 22  2  1  1  0  0  0
 22 23  1  0  0  0  0
 23 24  1  1  0  0  0
 24 25  1  0  0  0  0
 25 26  1  0  0  0  0
M  CHG  2  13  -1  18  -1
M  END
>  <CHROM.1>
93.91091261,-76.11326119,149.50521924,-60.47340710,-64.57095697,-173.25692302
74.01322146,-122.20616517,0.41634782,-16.74161875,-94.02823063,1.40572945
-1.04244068,1.78219631

>  <Name>
ligand

>  <RI>
0

>  <Rbt.Current_Directory>
/home/itssahil/PROJECTS/Mol_Feturizer/New_Systems/rnas/2CKY

>  <Rbt.Executable>
rbdock ($Id: //depot/dev/client3/rdock/2013.1/src/exe/rbdock.cxx#4 $)

>  <Rbt.Library>
libRbt.so (2013.1, Build901 2013/11/27)

>  <Rbt.Parameter_File>
/export/apps/rDock/src/rDock_2013.1_src/data/scripts/dock_solv.prm

>  <Rbt.Receptor>
prm/pocket_docking_2.prm

>  <SCORE>
-15.9266

>  <SCORE.INTER>
-14.2368

>  <SCORE.INTER.CONST>
1

>  <SCORE.INTER.POLAR>
0

>  <SCORE.INTER.ROT>
8

>  <SCORE.INTER.SOLV>
13.6393

>  <SCORE.INTER.VDW>
-22.9709

>  <SCORE.INTER.norm>
-0.547568

>  <SCORE.INTRA>
-2.07295

>  <SCORE.INTRA.DIHEDRAL>
-6.78105

>  <SCORE.INTRA.DIHEDRAL.0>
16.4846

>  <SCORE.INTRA.POLAR>
0

>  <SCORE.INTRA.POLAR.0>
0

>  <SCORE.INTRA.REPUL>
0

>  <SCORE.INTRA.REPUL.0>
0

>  <SCORE.INTRA.SOLV>
5.11102

>  <SCORE.INTRA.SOLV.lig_0>
-82.6983

>  <SCORE.INTRA.VDW>
-1.23794

>  <SCORE.INTRA.VDW.0>
-2.11466

>  <SCORE.INTRA.norm>
-0.0797289

>  <SCORE.RESTR>
0.383107

>  <SCORE.RESTR.CAVITY>
0.383107

>  <SCORE.RESTR.norm>
0.0147349

>  <SCORE.SYSTEM>
0

>  <SCORE.SYSTEM.CONST>
0

>  <SCORE.SYSTEM.DIHEDRAL>
0

>  <SCORE.SYSTEM.SOLV>
0

>  <SCORE.SYSTEM.norm>
0

>  <SCORE.heavy>
26

>  <SCORE.norm>
-0.612562

>  <RMSD>
2.498

$$$$
ligand
 OpenBabel11021811423D
libRbt.so/2013.1/901 2013/11/27
 26 27  0  0  0  0  0  0  0  0999 V2000
   -0.2946  -19.2776  -85.9388 C   0  0  0  0  0  0  0  0  0  0  0  0
    1.4733  -18.6373  -93.3026 C   0  0  0  0  0  0  0  0  0  0  0  0
    1.3098  -15.5154  -98.4323 P   0  0  2  0  0  0  0  0  0  0  0  0
   -0.8668  -14.3066  -99.6456 P   0  0  2  0  0  0  0  0  0  0  0  0
    2.3364  -17.2424  -90.6081 C   0  0  0  0  0  0  0  0  0  0  0  0
    2.2476  -17.7624  -88.1827 C   0  0  0  0  0  0  0  0  0  0  0  0
    1.6146  -17.8097  -89.4181 C   0  0  0  0  0  0  0  0  0  0  0  0
    0.3192  -18.3299  -89.4928 C   0  0  0  0  0  0  0  0  0  0  0  0
   -0.3909  -18.4141  -90.6182 N   0  0  0  0  0  0  0  0  0  0  0  0
   -0.2783  -18.7946  -88.3498 N   0  0  0  0  0  0  0  0  0  0  0  0
    0.3773  -18.7529  -87.1516 C   0  0  0  0  0  0  0  0  0  0  0  0
    1.6304  -18.2398  -87.0464 N   0  0  0  0  0  0  0  0  0  0  0  0
    2.6832  -15.0945  -97.9480 O   0  5  0  0  0  0  0  0  0  0  0  0
   -0.5758  -14.6359 -101.0925 O   0  0  0  0  0  0  0  0  0  0  0  0
    0.0405  -15.0143  -92.8737 S   0  0  0  0  0  0  0  0  0  0  0  0
    0.9381  -15.4356  -91.5803 C   0  0  0  0  0  0  0  0  0  0  0  0
    1.5381  -16.6148  -99.4662 O   0  0  0  0  0  0  0  0  0  0  0  0
   -1.5725  -12.9735  -99.5034 O   0  5  0  0  0  0  0  0  0  0  0  0
    1.4797  -16.7058  -91.6383 N   0  0  0  0  0  0  0  0  0  0  0  0
    0.5404  -14.1782  -98.9078 O   0  0  0  0  0  0  0  0  0  0  0  0
   -1.7119  -15.4225  -99.0658 O   0  0  0  0  0  0  0  0  0  0  0  0
    1.1036  -17.2903  -92.8226 C   0  0  1  0  0  0  0  0  0  0  0  0
    0.3033  -16.4218  -93.5814 C   0  0  2  0  0  0  0  0  0  0  0  0
   -0.3706  -16.4977  -94.9292 C   0  0  0  0  0  0  0  0  0  0  0  0
    0.6536  -16.6793  -96.0545 C   0  0  0  0  0  0  0  0  0  0  0  0
    0.3521  -15.7839  -97.1176 O   0  0  0  0  0  0  0  0  0  0  0  0
  1 11  1  0  0  0  0
  3 13  1  1  0  0  0
  3 17  2  0  0  0  0
  3 20  1  0  0  0  0
  3 26  1  0  0  0  0
  4 14  1  6  0  0  0
  4 18  1  0  0  0  0
  4 21  2  0  0  0  0
  4 20  1  0  0  0  0
  5 19  1  0  0  0  0
  5  7  1  0  0  0  0
  6  7  2  0  0  0  0
  6 12  1  0  0  0  0
  7  8  1  0  0  0  0
  8  9  1  0  0  0  0
  8 10  2  0  0  0  0
 10 11  1  0  0  0  0
 11 12  2  0  0  0  0
 15 23  1  0  0  0  0
 15 16  1  0  0  0  0
 16 19  1  0  0  0  0
 19 22  1  0  0  0  0
 22  2  1  6  0  0  0
 22 23  1  0  0  0  0
 23 24  1  6  0  0  0
 24 25  1  0  0  0  0
 25 26  1  0  0  0  0
M  CHG  2  13  -1  18  -1
M  END
>  <CHROM.1>
172.26150959,82.19770545,-150.22042473,-80.84305927,117.97730809,-133.95712296
171.70406733,-55.58720098,0.49407456,-16.33235446,-94.31974072,1.49246766
-0.39800714,1.84395664

>  <Name>
ligand

>  <RI>
0

>  <Rbt.Current_Directory>
/home/itssahil/PROJECTS/Mol_Feturizer/New_Systems/rnas/2CKY

>  <Rbt.Executable>
rbdock ($Id: //depot/dev/client3/rdock/2013.1/src/exe/rbdock.cxx#4 $)

>  <Rbt.Library>
libRbt.so (2013.1, Build901 2013/11/27)

>  <Rbt.Parameter_File>
/export/apps/rDock/src/rDock_2013.1_src/data/scripts/dock_solv.prm

>  <Rbt.Receptor>
prm/pocket_docking_2.prm

>  <SCORE>
-16.7776

>  <SCORE.INTER>
-14.3442

>  <SCORE.INTER.CONST>
1

>  <SCORE.INTER.POLAR>
0

>  <SCORE.INTER.ROT>
8

>  <SCORE.INTER.SOLV>
11.6625

>  <SCORE.INTER.VDW>
-22.3836

>  <SCORE.INTER.norm>
-0.551699

>  <SCORE.INTRA>
-2.50999

>  <SCORE.INTRA.DIHEDRAL>
-5.5564

>  <SCORE.INTRA.DIHEDRAL.0>
16.4846

>  <SCORE.INTRA.POLAR>
0

>  <SCORE.INTRA.POLAR.0>
0

>  <SCORE.INTRA.REPUL>
0

>  <SCORE.INTRA.REPUL.0>
0

>  <SCORE.INTRA.SOLV>
4.20004

>  <SCORE.INTRA.SOLV.lig_0>
-82.6983

>  <SCORE.INTRA.VDW>
-1.83181

>  <SCORE.INTRA.VDW.0>
-2.11466

>  <SCORE.INTRA.norm>
-0.0965381

>  <SCORE.RESTR>
0.0765836

>  <SCORE.RESTR.CAVITY>
0.0765836

>  <SCORE.RESTR.norm>
0.00294552

>  <SCORE.SYSTEM>
0

>  <SCORE.SYSTEM.CONST>
0

>  <SCORE.SYSTEM.DIHEDRAL>
0

>  <SCORE.SYSTEM.SOLV>
0

>  <SCORE.SYSTEM.norm>
0

>  <SCORE.heavy>
26

>  <SCORE.norm>
-0.645291

>  <RMSD>
2.502

$$$$
ligand
 OpenBabel11021811423D
libRbt.so/2013.1/901 2013/11/27
 26 27  0  0  0  0  0  0  0  0999 V2000
    0.1738  -18.9991  -85.9530 C   0  0  0  0  0  0  0  0  0  0  0  0
    0.0900  -16.0731  -92.0682 C   0  0  0  0  0  0  0  0  0  0  0  0
    0.6170  -16.1394  -98.0809 P   0  0  2  0  0  0  0  0  0  0  0  0
    0.6364  -13.4275  -98.6427 P   0  0  2  0  0  0  0  0  0  0  0  0
    2.6095  -17.6094  -90.9532 C   0  0  0  0  0  0  0  0  0  0  0  0
    2.5087  -17.5885  -88.4733 C   0  0  0  0  0  0  0  0  0  0  0  0
    1.9467  -18.0194  -89.6681 C   0  0  0  0  0  0  0  0  0  0  0  0
    0.7652  -18.7655  -89.6274 C   0  0  0  0  0  0  0  0  0  0  0  0
    0.1291  -19.2212  -90.7070 N   0  0  0  0  0  0  0  0  0  0  0  0
    0.2090  -19.0653  -88.4108 N   0  0  0  0  0  0  0  0  0  0  0  0
    0.7958  -18.6440  -87.2509 C   0  0  0  0  0  0  0  0  0  0  0  0
    1.9356  -17.9054  -87.2604 N   0  0  0  0  0  0  0  0  0  0  0  0
    2.0134  -16.4627  -98.5742 O   0  5  0  0  0  0  0  0  0  0  0  0
    1.4688  -12.3075  -98.0602 O   0  0  0  0  0  0  0  0  0  0  0  0
    1.1347  -19.1686  -94.2338 S   0  0  0  0  0  0  0  0  0  0  0  0
    2.1424  -18.9862  -92.9660 C   0  0  0  0  0  0  0  0  0  0  0  0
   -0.3344  -16.5048  -99.2172 O   0  0  0  0  0  0  0  0  0  0  0  0
   -0.8040  -13.0068  -98.8529 O   0  5  0  0  0  0  0  0  0  0  0  0
    1.8563  -17.9101  -92.1472 N   0  0  0  0  0  0  0  0  0  0  0  0
    0.6331  -14.6077  -97.5712 O   0  0  0  0  0  0  0  0  0  0  0  0
    1.2649  -13.8532  -99.9541 O   0  0  0  0  0  0  0  0  0  0  0  0
    0.7506  -17.2633  -92.6416 C   0  0  1  0  0  0  0  0  0  0  0  0
    0.2739  -17.8948  -93.8011 C   0  0  2  0  0  0  0  0  0  0  0  0
   -0.8792  -17.6597  -94.7454 C   0  0  0  0  0  0  0  0  0  0  0  0
   -0.6099  -16.4652  -95.6668 C   0  0  0  0  0  0  0  0  0  0  0  0
    0.4272  -16.7978  -96.5815 O   0  0  0  0  0  0  0  0  0  0  0  0
  1 11  1  0  0  0  0
  3 13  1  6  0  0  0
  3 17  2  0  0  0  0
  3 20  1  0  0  0  0
  3 26  1  0  0  0  0
  4 14  1  1  0  0  0
  4 18  1  0  0  0  0
  4 21  2  0  0  0  0
  4 20  1  0  0  0  0
  5 19  1  0  0  0  0
  5  7  1  0  0  0  0
  6  7  2  0  0  0  0
  6 12  1  0  0  0  0
  7  8  1  0  0  0  0
  8  9  1  0  0  0  0
  8 10  2  0  0  0  0
 10 11  1  0  0  0  0
 11 12  2  0  0  0  0
 15 23  1  0  0  0  0
 15 16  1  0  0  0  0
 16 19  1  0  0  0  0
 19 22  1  0  0  0  0
 22  2  1  1  0  0  0
 22 23  1  0  0  0  0
 23 24  1  1  0  0  0
 24 25  1  0  0  0  0
 25 26  1  0  0  0  0
M  CHG  2  13  -1  18  -1
M  END
>  <CHROM.1>
75.54537073,-101.87559148,-170.52193226,-145.51243647,-105.44325191,69.19207708
152.97402382,164.80408942,0.80747104,-16.74845588,-94.20050890,-1.00726541
-1.47711680,-0.62401461

>  <Name>
ligand

>  <RI>
0

>  <Rbt.Current_Directory>
/home/itssahil/PROJECTS/Mol_Feturizer/New_Systems/rnas/2CKY

>  <Rbt.Executable>
rbdock ($Id: //depot/dev/client3/rdock/2013.1/src/exe/rbdock.cxx#4 $)

>  <Rbt.Library>
libRbt.so (2013.1, Build901 2013/11/27)

>  <Rbt.Parameter_File>
/export/apps/rDock/src/rDock_2013.1_src/data/scripts/dock_solv.prm

>  <Rbt.Receptor>
prm/pocket_docking_2.prm

>  <SCORE>
-15.6469

>  <SCORE.INTER>
-13.8687

>  <SCORE.INTER.CONST>
1

>  <SCORE.INTER.POLAR>
0

>  <SCORE.INTER.ROT>
8

>  <SCORE.INTER.SOLV>
9.5201

>  <SCORE.INTER.VDW>
-21.3525

>  <SCORE.INTER.norm>
-0.53341

>  <SCORE.INTRA>
-1.79232

>  <SCORE.INTRA.DIHEDRAL>
-6.54258

>  <SCORE.INTRA.DIHEDRAL.0>
16.4846

>  <SCORE.INTRA.POLAR>
0

>  <SCORE.INTRA.POLAR.0>
0

>  <SCORE.INTRA.REPUL>
0

>  <SCORE.INTRA.REPUL.0>
0

>  <SCORE.INTRA.SOLV>
6.43654

>  <SCORE.INTRA.SOLV.lig_0>
-82.6983

>  <SCORE.INTRA.VDW>
-1.73931

>  <SCORE.INTRA.VDW.0>
-2.11466

>  <SCORE.INTRA.norm>
-0.0689355

>  <SCORE.RESTR>
0.0141325

>  <SCORE.RESTR.CAVITY>
0.0141325

>  <SCORE.RESTR.norm>
0.000543557

>  <SCORE.SYSTEM>
0

>  <SCORE.SYSTEM.CONST>
0

>  <SCORE.SYSTEM.DIHEDRAL>
0

>  <SCORE.SYSTEM.SOLV>
0

>  <SCORE.SYSTEM.norm>
0

>  <SCORE.heavy>
26

>  <SCORE.norm>
-0.601802

>  <RMSD>
2.508

$$$$
ligand
 OpenBabel11021811423D
libRbt.so/2013.1/901 2013/11/27
 26 27  0  0  0  0  0  0  0  0999 V2000
    0.2059  -19.0589  -86.2149 C   0  0  0  0  0  0  0  0  0  0  0  0
    0.3504  -15.4415  -92.6406 C   0  0  0  0  0  0  0  0  0  0  0  0
    1.3371  -15.1212  -98.0396 P   0  0  2  0  0  0  0  0  0  0  0  0
    0.1895  -14.9570 -100.5548 P   0  0  2  0  0  0  0  0  0  0  0  0
    2.5130  -17.1469  -91.1024 C   0  0  0  0  0  0  0  0  0  0  0  0
    2.6079  -17.6537  -88.6745 C   0  0  0  0  0  0  0  0  0  0  0  0
    1.8721  -17.6808  -89.8521 C   0  0  0  0  0  0  0  0  0  0  0  0
    0.5557  -18.1497  -89.8144 C   0  0  0  0  0  0  0  0  0  0  0  0
   -0.2491  -18.2101  -90.8758 N   0  0  0  0  0  0  0  0  0  0  0  0
    0.0386  -18.5862  -88.6222 N   0  0  0  0  0  0  0  0  0  0  0  0
    0.7935  -18.5658  -87.4834 C   0  0  0  0  0  0  0  0  0  0  0  0
    2.0701  -18.1021  -87.4871 N   0  0  0  0  0  0  0  0  0  0  0  0
    1.3531  -13.6089  -97.9361 O   0  5  0  0  0  0  0  0  0  0  0  0
    0.0726  -13.4522 -100.4618 O   0  0  0  0  0  0  0  0  0  0  0  0
    1.1247  -18.8949  -94.3251 S   0  0  0  0  0  0  0  0  0  0  0  0
    2.0320  -18.6906  -92.9867 C   0  0  0  0  0  0  0  0  0  0  0  0
    2.7606  -15.5416  -98.3957 O   0  0  0  0  0  0  0  0  0  0  0  0
   -0.9842  -15.5675 -101.2934 O   0  5  0  0  0  0  0  0  0  0  0  0
    1.8329  -17.4921  -92.3279 N   0  0  0  0  0  0  0  0  0  0  0  0
    0.1532  -15.5175  -99.0630 O   0  0  0  0  0  0  0  0  0  0  0  0
    1.4917  -15.2894 -101.2545 O   0  0  0  0  0  0  0  0  0  0  0  0
    0.8803  -16.7712  -93.0049 C   0  0  1  0  0  0  0  0  0  0  0  0
    0.4220  -17.4740  -94.1302 C   0  0  2  0  0  0  0  0  0  0  0  0
   -0.5969  -17.2080  -95.2108 C   0  0  0  0  0  0  0  0  0  0  0  0
    0.0723  -17.0470  -96.5799 C   0  0  0  0  0  0  0  0  0  0  0  0
    0.5917  -15.7285  -96.7004 O   0  0  0  0  0  0  0  0  0  0  0  0
  1 11  1  0  0  0  0
  3 13  1  1  0  0  0
  3 17  2  0  0  0  0
  3 20  1  0  0  0  0
  3 26  1  0  0  0  0
  4 14  1  1  0  0  0
  4 18  1  0  0  0  0
  4 21  2  0  0  0  0
  4 20  1  0  0  0  0
  5 19  1  0  0  0  0
  5  7  1  0  0  0  0
  6  7  2  0  0  0  0
  6 12  1  0  0  0  0
  7  8  1  0  0  0  0
  8  9  1  0  0  0  0
  8 10  2  0  0  0  0
 10 11  1  0  0  0  0
 11 12  2  0  0  0  0
 15 23  1  0  0  0  0
 15 16  1  0  0  0  0
 16 19  1  0  0  0  0
 19 22  1  0  0  0  0
 22  2  1  1  0  0  0
 22 23  1  0  0  0  0
 23 24  1  1  0  0  0
 24 25  1  0  0  0  0
 25 26  1  0  0  0  0
M  CHG  2  13  -1  18  -1
M  END
>  <CHROM.1>
58.71999640,-84.04785789,165.88471294,-63.73155896,-66.83692179,-80.60833130
-177.48914774,162.69881101,0.88078359,-16.65839994,-94.73796964,1.50048259
0.84781305,1.91694359

>  <Name>
ligand

>  <RI>
0

>  <Rbt.Current_Directory>
/home/itssahil/PROJECTS/Mol_Feturizer/New_Systems/rnas/2CKY

>  <Rbt.Executable>
rbdock ($Id: //depot/dev/client3/rdock/2013.1/src/exe/rbdock.cxx#4 $)

>  <Rbt.Library>
libRbt.so (2013.1, Build901 2013/11/27)

>  <Rbt.Parameter_File>
/export/apps/rDock/src/rDock_2013.1_src/data/scripts/dock_solv.prm

>  <Rbt.Receptor>
prm/pocket_docking_2.prm

>  <SCORE>
-18.5802

>  <SCORE.INTER>
-15.1295

>  <SCORE.INTER.CONST>
1

>  <SCORE.INTER.POLAR>
0

>  <SCORE.INTER.ROT>
8

>  <SCORE.INTER.SOLV>
12.7115

>  <SCORE.INTER.VDW>
-23.2569

>  <SCORE.INTER.norm>
-0.581905

>  <SCORE.INTRA>
-3.45071

>  <SCORE.INTRA.DIHEDRAL>
-9.63511

>  <SCORE.INTRA.DIHEDRAL.0>
16.4846

>  <SCORE.INTRA.POLAR>
0

>  <SCORE.INTRA.POLAR.0>
0

>  <SCORE.INTRA.REPUL>
0

>  <SCORE.INTRA.REPUL.0>
0

>  <SCORE.INTRA.SOLV>
4.91141

>  <SCORE.INTRA.SOLV.lig_0>
-82.6983

>  <SCORE.INTRA.VDW>
-1.08886

>  <SCORE.INTRA.VDW.0>
-2.11466

>  <SCORE.INTRA.norm>
-0.13272

>  <SCORE.RESTR>
0

>  <SCORE.RESTR.CAVITY>
0

>  <SCORE.RESTR.norm>
0

>  <SCORE.SYSTEM>
0

>  <SCORE.SYSTEM.CONST>
0

>  <SCORE.SYSTEM.DIHEDRAL>
0

>  <SCORE.SYSTEM.SOLV>
0

>  <SCORE.SYSTEM.norm>
0

>  <SCORE.heavy>
26

>  <SCORE.norm>
-0.714624

>  <RMSD>
2.513

$$$$
ligand
 OpenBabel11021811423D
libRbt.so/2013.1/901 2013/11/27
 26 27  0  0  0  0  0  0  0  0999 V2000
   -0.4219  -19.2940  -86.0629 C   0  0  0  0  0  0  0  0  0  0  0  0
    1.5496  -18.9294  -93.3883 C   0  0  0  0  0  0  0  0  0  0  0  0
   -2.5457  -14.3562  -95.8521 P   0  0  2  0  0  0  0  0  0  0  0  0
   -0.8153  -13.7786  -97.9359 P   0  0  2  0  0  0  0  0  0  0  0  0
    2.4287  -17.5166  -90.7083 C   0  0  0  0  0  0  0  0  0  0  0  0
    0.4066  -18.3981  -89.5706 C   0  0  0  0  0  0  0  0  0  0  0  0
    1.7164  -17.9501  -89.4580 C   0  0  0  0  0  0  0  0  0  0  0  0
    2.3315  -17.9727  -88.2028 C   0  0  0  0  0  0  0  0  0  0  0  0
    3.5854  -17.5808  -87.9754 N   0  0  0  0  0  0  0  0  0  0  0  0
    1.6178  -18.4171  -87.1199 N   0  0  0  0  0  0  0  0  0  0  0  0
    0.3237  -18.8334  -87.2585 C   0  0  0  0  0  0  0  0  0  0  0  0
   -0.2947  -18.8362  -88.4678 N   0  0  0  0  0  0  0  0  0  0  0  0
   -3.5908  -14.9115  -96.7995 O   0  5  0  0  0  0  0  0  0  0  0  0
   -1.0865  -12.3111  -97.6917 O   0  0  0  0  0  0  0  0  0  0  0  0
    0.1400  -15.2942  -92.9868 S   0  0  0  0  0  0  0  0  0  0  0  0
    1.0388  -15.7097  -91.6923 C   0  0  0  0  0  0  0  0  0  0  0  0
   -2.9951  -12.9405  -95.5004 O   0  0  0  0  0  0  0  0  0  0  0  0
   -1.7488  -14.3567  -98.9799 O   0  5  0  0  0  0  0  0  0  0  0  0
    1.5724  -16.9837  -91.7408 N   0  0  0  0  0  0  0  0  0  0  0  0
   -1.1092  -14.5383  -96.5657 O   0  0  0  0  0  0  0  0  0  0  0  0
    0.6288  -13.9284  -98.3695 O   0  0  0  0  0  0  0  0  0  0  0  0
    1.1894  -17.5760  -92.9189 C   0  0  1  0  0  0  0  0  0  0  0  0
    0.3923  -16.7092  -93.6830 C   0  0  2  0  0  0  0  0  0  0  0  0
   -0.2859  -16.7927  -95.0282 C   0  0  0  0  0  0  0  0  0  0  0  0
   -1.8114  -16.7978  -94.8835 C   0  0  0  0  0  0  0  0  0  0  0  0
   -2.2706  -15.4691  -94.6675 O   0  0  0  0  0  0  0  0  0  0  0  0
  1 11  1  0  0  0  0
  3 13  1  6  0  0  0
  3 17  2  0  0  0  0
  3 20  1  0  0  0  0
  3 26  1  0  0  0  0
  4 14  1  1  0  0  0
  4 18  1  0  0  0  0
  4 21  2  0  0  0  0
  4 20  1  0  0  0  0
  5 19  1  0  0  0  0
  5  7  1  0  0  0  0
  6  7  2  0  0  0  0
  6 12  1  0  0  0  0
  7  8  1  0  0  0  0
  8  9  1  0  0  0  0
  8 10  2  0  0  0  0
 10 11  1  0  0  0  0
 11 12  2  0  0  0  0
 15 23  1  0  0  0  0
 15 16  1  0  0  0  0
 16 19  1  0  0  0  0
 19 22  1  0  0  0  0
 22  2  1  6  0  0  0
 22 23  1  0  0  0  0
 23 24  1  6  0  0  0
 24 25  1  0  0  0  0
 25 26  1  0  0  0  0
M  CHG  2  13  -1  18  -1
M  END
>  <CHROM.1>
62.79563461,76.69705810,29.32935481,54.61603493,-67.71526422,79.32200692
82.89680053,59.22783312,-0.22263943,-16.05142410,-93.36723037,1.28191379
-0.14318820,1.98139542

>  <Name>
ligand

>  <RI>
0

>  <Rbt.Current_Directory>
/home/itssahil/PROJECTS/Mol_Feturizer/New_Systems/rnas/2CKY

>  <Rbt.Executable>
rbdock ($Id: //depot/dev/client3/rdock/2013.1/src/exe/rbdock.cxx#4 $)

>  <Rbt.Library>
libRbt.so (2013.1, Build901 2013/11/27)

>  <Rbt.Parameter_File>
/export/apps/rDock/src/rDock_2013.1_src/data/scripts/dock_solv.prm

>  <Rbt.Receptor>
prm/pocket_docking_4.prm

>  <SCORE>
-21.046

>  <SCORE.INTER>
-16.787

>  <SCORE.INTER.CONST>
1

>  <SCORE.INTER.POLAR>
0

>  <SCORE.INTER.ROT>
8

>  <SCORE.INTER.SOLV>
22.7012

>  <SCORE.INTER.VDW>
-27.6918

>  <SCORE.INTER.norm>
-0.645655

>  <SCORE.INTRA>
-4.25896

>  <SCORE.INTRA.DIHEDRAL>
-7.67232

>  <SCORE.INTRA.DIHEDRAL.0>
16.4846

>  <SCORE.INTRA.POLAR>
0

>  <SCORE.INTRA.POLAR.0>
0

>  <SCORE.INTRA.REPUL>
0

>  <SCORE.INTRA.REPUL.0>
0

>  <SCORE.INTRA.SOLV>
0.947161

>  <SCORE.INTRA.SOLV.lig_0>
-82.6983

>  <SCORE.INTRA.VDW>
-0.896378

>  <SCORE.INTRA.VDW.0>
-2.11466

>  <SCORE.INTRA.norm>
-0.163806

>  <SCORE.RESTR>
0

>  <SCORE.RESTR.CAVITY>
0

>  <SCORE.RESTR.norm>
0

>  <SCORE.SYSTEM>
0

>  <SCORE.SYSTEM.CONST>
0

>  <SCORE.SYSTEM.DIHEDRAL>
0

>  <SCORE.SYSTEM.SOLV>
0

>  <SCORE.SYSTEM.norm>
0

>  <SCORE.heavy>
26

>  <SCORE.norm>
-0.809461

>  <RMSD>
2.513

$$$$
ligand
 OpenBabel11021811423D
libRbt.so/2013.1/901 2013/11/27
 26 27  0  0  0  0  0  0  0  0999 V2000
   -0.0884  -19.1574  -86.0834 C   0  0  0  0  0  0  0  0  0  0  0  0
    0.3979  -15.5973  -92.3143 C   0  0  0  0  0  0  0  0  0  0  0  0
    1.6289  -16.2733  -97.3801 P   0  0  2  0  0  0  0  0  0  0  0  0
    1.8196  -13.7417  -98.4870 P   0  0  2  0  0  0  0  0  0  0  0  0
    2.6016  -17.2438  -90.7703 C   0  0  0  0  0  0  0  0  0  0  0  0
    2.4673  -17.6667  -88.3282 C   0  0  0  0  0  0  0  0  0  0  0  0
    1.8661  -17.7814  -89.5750 C   0  0  0  0  0  0  0  0  0  0  0  0
    0.5869  -18.3391  -89.6583 C   0  0  0  0  0  0  0  0  0  0  0  0
   -0.0931  -18.4882  -90.7955 N   0  0  0  0  0  0  0  0  0  0  0  0
   -0.0259  -18.7728  -88.5113 N   0  0  0  0  0  0  0  0  0  0  0  0
    0.5989  -18.6646  -87.3009 C   0  0  0  0  0  0  0  0  0  0  0  0
    1.8353  -18.1139  -87.1878 N   0  0  0  0  0  0  0  0  0  0  0  0
    2.5797  -17.3608  -96.9204 O   0  5  0  0  0  0  0  0  0  0  0  0
    0.8527  -13.2127  -97.4516 O   0  0  0  0  0  0  0  0  0  0  0  0
    1.4819  -18.8871  -94.1487 S   0  0  0  0  0  0  0  0  0  0  0  0
    2.3124  -18.7024  -92.7587 C   0  0  0  0  0  0  0  0  0  0  0  0
    0.7082  -16.9174  -98.4131 O   0  0  0  0  0  0  0  0  0  0  0  0
    1.1042  -14.2047  -99.7397 O   0  5  0  0  0  0  0  0  0  0  0  0
    2.0023  -17.5604  -92.0446 N   0  0  0  0  0  0  0  0  0  0  0  0
    2.5296  -15.0180  -97.8483 O   0  0  0  0  0  0  0  0  0  0  0  0
    2.8120  -12.6443  -98.8138 O   0  0  0  0  0  0  0  0  0  0  0  0
    1.0336  -16.8655  -92.7258 C   0  0  1  0  0  0  0  0  0  0  0  0
    0.6752  -17.5296  -93.9095 C   0  0  2  0  0  0  0  0  0  0  0  0
   -0.3104  -17.2684  -95.0216 C   0  0  0  0  0  0  0  0  0  0  0  0
   -0.2648  -15.8050  -95.4739 C   0  0  0  0  0  0  0  0  0  0  0  0
    1.0061  -15.5269  -96.0487 O   0  0  0  0  0  0  0  0  0  0  0  0
  1 11  1  0  0  0  0
  3 13  1  1  0  0  0
  3 17  2  0  0  0  0
  3 20  1  0  0  0  0
  3 26  1  0  0  0  0
  4 14  1  1  0  0  0
  4 18  1  0  0  0  0
  4 21  2  0  0  0  0
  4 20  1  0  0  0  0
  5 19  1  0  0  0  0
  5  7  1  0  0  0  0
  6  7  2  0  0  0  0
  6 12  1  0  0  0  0
  7  8  1  0  0  0  0
  8  9  1  0  0  0  0
  8 10  2  0  0  0  0
 10 11  1  0  0  0  0
 11 12  2  0  0  0  0
 15 23  1  0  0  0  0
 15 16  1  0  0  0  0
 16 19  1  0  0  0  0
 19 22  1  0  0  0  0
 22  2  1  1  0  0  0
 22 23  1  0  0  0  0
 23 24  1  1  0  0  0
 24 25  1  0  0  0  0
 25 26  1  0  0  0  0
M  CHG  2  13  -1  18  -1
M  END
>  <CHROM.1>
175.70936346,-89.71833646,171.92968582,59.29852320,-135.59744800,64.89233667
60.97822478,-98.54244818,1.28999141,-16.66715719,-93.99948264,-2.08420488
-1.44569368,-1.71046631

>  <Name>
ligand

>  <RI>
0

>  <Rbt.Current_Directory>
/home/itssahil/PROJECTS/Mol_Feturizer/New_Systems/rnas/2CKY

>  <Rbt.Executable>
rbdock ($Id: //depot/dev/client3/rdock/2013.1/src/exe/rbdock.cxx#4 $)

>  <Rbt.Library>
libRbt.so (2013.1, Build901 2013/11/27)

>  <Rbt.Parameter_File>
/export/apps/rDock/src/rDock_2013.1_src/data/scripts/dock_solv.prm

>  <Rbt.Receptor>
prm/pocket_docking_3.prm

>  <SCORE>
-18.8023

>  <SCORE.INTER>
-14.5461

>  <SCORE.INTER.CONST>
1

>  <SCORE.INTER.POLAR>
0

>  <SCORE.INTER.ROT>
8

>  <SCORE.INTER.SOLV>
9.08263

>  <SCORE.INTER.VDW>
-21.6583

>  <SCORE.INTER.norm>
-0.559464

>  <SCORE.INTRA>
-4.25624

>  <SCORE.INTRA.DIHEDRAL>
-10.3201

>  <SCORE.INTRA.DIHEDRAL.0>
16.4846

>  <SCORE.INTRA.POLAR>
0

>  <SCORE.INTRA.POLAR.0>
0

>  <SCORE.INTRA.REPUL>
0

>  <SCORE.INTRA.REPUL.0>
0

>  <SCORE.INTRA.SOLV>
6.02822

>  <SCORE.INTRA.SOLV.lig_0>
-82.6983

>  <SCORE.INTRA.VDW>
-2.11029

>  <SCORE.INTRA.VDW.0>
-2.11466

>  <SCORE.INTRA.norm>
-0.163702

>  <SCORE.RESTR>
0

>  <SCORE.RESTR.CAVITY>
0

>  <SCORE.RESTR.norm>
0

>  <SCORE.SYSTEM>
0

>  <SCORE.SYSTEM.CONST>
0

>  <SCORE.SYSTEM.DIHEDRAL>
0

>  <SCORE.SYSTEM.SOLV>
0

>  <SCORE.SYSTEM.norm>
0

>  <SCORE.heavy>
26

>  <SCORE.norm>
-0.723166

>  <RMSD>
2.524

$$$$
ligand
 OpenBabel11021811423D
libRbt.so/2013.1/901 2013/11/27
 26 27  0  0  0  0  0  0  0  0999 V2000
    0.3683  -19.0448  -86.0545 C   0  0  0  0  0  0  0  0  0  0  0  0
    1.5058  -19.1213  -93.5546 C   0  0  0  0  0  0  0  0  0  0  0  0
    1.7649  -16.2378  -97.8576 P   0  0  2  0  0  0  0  0  0  0  0  0
    0.8615  -13.7112  -97.1713 P   0  0  2  0  0  0  0  0  0  0  0  0
    2.0890  -17.1314  -91.1773 C   0  0  0  0  0  0  0  0  0  0  0  0
    2.4829  -17.6927  -88.7919 C   0  0  0  0  0  0  0  0  0  0  0  0
    1.5966  -17.6634  -89.8608 C   0  0  0  0  0  0  0  0  0  0  0  0
    0.2770  -18.0761  -89.6544 C   0  0  0  0  0  0  0  0  0  0  0  0
   -0.6637  -18.0796  -90.5993 N   0  0  0  0  0  0  0  0  0  0  0  0
   -0.0961  -18.5149  -88.4103 N   0  0  0  0  0  0  0  0  0  0  0  0
    0.8037  -18.5508  -87.3826 C   0  0  0  0  0  0  0  0  0  0  0  0
    2.0882  -18.1424  -87.5502 N   0  0  0  0  0  0  0  0  0  0  0  0
    3.1336  -16.8799  -97.9687 O   0  5  0  0  0  0  0  0  0  0  0  0
    1.5415  -12.4192  -96.7776 O   0  0  0  0  0  0  0  0  0  0  0  0
   -0.8113  -15.9601  -93.5404 S   0  0  0  0  0  0  0  0  0  0  0  0
    0.2221  -15.9224  -92.2808 C   0  0  0  0  0  0  0  0  0  0  0  0
    1.2217  -16.1377  -99.2805 O   0  0  0  0  0  0  0  0  0  0  0  0
   -0.2887  -14.0467  -96.2439 O   0  5  0  0  0  0  0  0  0  0  0  0
    1.0763  -17.0057  -92.1981 N   0  0  0  0  0  0  0  0  0  0  0  0
    1.9455  -14.8701  -97.0192 O   0  0  0  0  0  0  0  0  0  0  0  0
    0.3734  -13.5745  -98.5992 O   0  0  0  0  0  0  0  0  0  0  0  0
    0.8156  -17.8522  -93.2474 C   0  0  1  0  0  0  0  0  0  0  0  0
   -0.2182  -17.3512  -94.0541 C   0  0  2  0  0  0  0  0  0  0  0  0
   -0.9074  -17.8151  -95.3136 C   0  0  0  0  0  0  0  0  0  0  0  0
   -0.4985  -16.9615  -96.5188 C   0  0  0  0  0  0  0  0  0  0  0  0
    0.9125  -17.0243  -96.6861 O   0  0  0  0  0  0  0  0  0  0  0  0
  1 11  1  0  0  0  0
  3 13  1  6  0  0  0
  3 17  2  0  0  0  0
  3 20  1  0  0  0  0
  3 26  1  0  0  0  0
  4 14  1  1  0  0  0
  4 18  1  0  0  0  0
  4 21  2  0  0  0  0
  4 20  1  0  0  0  0
  5 19  1  0  0  0  0
  5  7  1  0  0  0  0
  6  7  2  0  0  0  0
  6 12  1  0  0  0  0
  7  8  1  0  0  0  0
  8  9  1  0  0  0  0
  8 10  2  0  0  0  0
 10 11  1  0  0  0  0
 11 12  2  0  0  0  0
 15 23  1  0  0  0  0
 15 16  1  0  0  0  0
 16 19  1  0  0  0  0
 19 22  1  0  0  0  0
 22  2  1  6  0  0  0
 22 23  1  0  0  0  0
 23 24  1  6  0  0  0
 24 25  1  0  0  0  0
 25 26  1  0  0  0  0
M  CHG  2  13  -1  18  -1
M  END
>  <CHROM.1>
157.61846884,82.33730318,-173.95421563,-156.87252580,72.09852519,58.25620041
-179.40293099,-162.73345639,0.81297137,-16.50646479,-93.92754019,1.67176716
-1.29020893,2.01082021

>  <Name>
ligand

>  <RI>
0

>  <Rbt.Current_Directory>
/home/itssahil/PROJECTS/Mol_Feturizer/New_Systems/rnas/2CKY

>  <Rbt.Executable>
rbdock ($Id: //depot/dev/client3/rdock/2013.1/src/exe/rbdock.cxx#4 $)

>  <Rbt.Library>
libRbt.so (2013.1, Build901 2013/11/27)

>  <Rbt.Parameter_File>
/export/apps/rDock/src/rDock_2013.1_src/data/scripts/dock_solv.prm

>  <Rbt.Receptor>
prm/pocket_docking_3.prm

>  <SCORE>
-16.1724

>  <SCORE.INTER>
-12.9167

>  <SCORE.INTER.CONST>
1

>  <SCORE.INTER.POLAR>
0

>  <SCORE.INTER.ROT>
8

>  <SCORE.INTER.SOLV>
10.255

>  <SCORE.INTER.VDW>
-20.9628

>  <SCORE.INTER.norm>
-0.496794

>  <SCORE.INTRA>
-3.25725

>  <SCORE.INTRA.DIHEDRAL>
-8.93225

>  <SCORE.INTRA.DIHEDRAL.0>
16.4846

>  <SCORE.INTRA.POLAR>
0

>  <SCORE.INTRA.POLAR.0>
0

>  <SCORE.INTRA.REPUL>
0

>  <SCORE.INTRA.REPUL.0>
0

>  <SCORE.INTRA.SOLV>
6.82598

>  <SCORE.INTRA.SOLV.lig_0>
-82.6983

>  <SCORE.INTRA.VDW>
-2.20412

>  <SCORE.INTRA.VDW.0>
-2.11466

>  <SCORE.INTRA.norm>
-0.125279

>  <SCORE.RESTR>
0.00153015

>  <SCORE.RESTR.CAVITY>
0.00153015

>  <SCORE.RESTR.norm>
5.8852e-05

>  <SCORE.SYSTEM>
0

>  <SCORE.SYSTEM.CONST>
0

>  <SCORE.SYSTEM.DIHEDRAL>
0

>  <SCORE.SYSTEM.SOLV>
0

>  <SCORE.SYSTEM.norm>
0

>  <SCORE.heavy>
26

>  <SCORE.norm>
-0.622015

>  <RMSD>
2.532

$$$$
ligand
 OpenBabel11021811423D
libRbt.so/2013.1/901 2013/11/27
 26 27  0  0  0  0  0  0  0  0999 V2000
    0.2865  -19.0141  -86.2234 C   0  0  0  0  0  0  0  0  0  0  0  0
    0.5754  -17.7807  -93.8089 C   0  0  0  0  0  0  0  0  0  0  0  0
    1.8492  -13.6800  -97.2450 P   0  0  2  0  0  0  0  0  0  0  0  0
    3.1171  -16.0982  -97.7089 P   0  0  2  0  0  0  0  0  0  0  0  0
    2.3040  -17.1359  -91.2501 C   0  0  0  0  0  0  0  0  0  0  0  0
    2.4976  -17.5179  -88.8053 C   0  0  0  0  0  0  0  0  0  0  0  0
    1.7415  -17.6654  -89.9610 C   0  0  0  0  0  0  0  0  0  0  0  0
    0.4737  -18.2472  -89.8679 C   0  0  0  0  0  0  0  0  0  0  0  0
   -0.3456  -18.4285  -90.9041 N   0  0  0  0  0  0  0  0  0  0  0  0
    0.0244  -18.6714  -88.6442 N   0  0  0  0  0  0  0  0  0  0  0  0
    0.7993  -18.5307  -87.5276 C   0  0  0  0  0  0  0  0  0  0  0  0
    2.0287  -17.9562  -87.5854 N   0  0  0  0  0  0  0  0  0  0  0  0
    1.0228  -12.6882  -98.0395 O   0  5  0  0  0  0  0  0  0  0  0  0
    2.3918  -16.8167  -96.5934 O   0  0  0  0  0  0  0  0  0  0  0  0
    0.2790  -14.0634  -92.6019 S   0  0  0  0  0  0  0  0  0  0  0  0
    1.2730  -14.9086  -91.6252 C   0  0  0  0  0  0  0  0  0  0  0  0
    3.0391  -12.9003  -96.6917 O   0  0  0  0  0  0  0  0  0  0  0  0
    4.3930  -15.4436  -97.2198 O   0  5  0  0  0  0  0  0  0  0  0  0
    1.4324  -16.2377  -91.9690 N   0  0  0  0  0  0  0  0  0  0  0  0
    2.1521  -14.9346  -98.2146 O   0  0  0  0  0  0  0  0  0  0  0  0
    3.4177  -17.1021  -98.8032 O   0  0  0  0  0  0  0  0  0  0  0  0
    0.6834  -16.4945  -93.0908 C   0  0  1  0  0  0  0  0  0  0  0  0
    0.0084  -15.3413  -93.5209 C   0  0  2  0  0  0  0  0  0  0  0  0
   -0.9185  -15.0133  -94.6654 C   0  0  0  0  0  0  0  0  0  0  0  0
   -0.3045  -13.9614  -95.5953 C   0  0  0  0  0  0  0  0  0  0  0  0
    0.8431  -14.5069  -96.2342 O   0  0  0  0  0  0  0  0  0  0  0  0
  1 11  1  0  0  0  0
  3 13  1  6  0  0  0
  3 17  2  0  0  0  0
  3 20  1  0  0  0  0
  3 26  1  0  0  0  0
  4 14  1  1  0  0  0
  4 18  1  0  0  0  0
  4 21  2  0  0  0  0
  4 20  1  0  0  0  0
  5 19  1  0  0  0  0
  5  7  1  0  0  0  0
  6  7  2  0  0  0  0
  6 12  1  0  0  0  0
  7  8  1  0  0  0  0
  8  9  1  0  0  0  0
  8 10  2  0  0  0  0
 10 11  1  0  0  0  0
 11 12  2  0  0  0  0
 15 23  1  0  0  0  0
 15 16  1  0  0  0  0
 16 19  1  0  0  0  0
 19 22  1  0  0  0  0
 22  2  1  6  0  0  0
 22 23  1  0  0  0  0
 23 24  1  6  0  0  0
 24 25  1  0  0  0  0
 25 26  1  0  0  0  0
M  CHG  2  13  -1  18  -1
M  END
>  <CHROM.1>
174.61077419,78.89957997,-126.74775760,68.45335297,62.42549916,65.86897578
-176.15045143,-34.70007934,1.43649841,-15.94181544,-93.77167233,-1.80710809
0.88677463,-1.02672825

>  <Name>
ligand

>  <RI>
0

>  <Rbt.Current_Directory>
/home/itssahil/PROJECTS/Mol_Feturizer/New_Systems/rnas/2CKY

>  <Rbt.Executable>
rbdock ($Id: //depot/dev/client3/rdock/2013.1/src/exe/rbdock.cxx#4 $)

>  <Rbt.Library>
libRbt.so (2013.1, Build901 2013/11/27)

>  <Rbt.Parameter_File>
/export/apps/rDock/src/rDock_2013.1_src/data/scripts/dock_solv.prm

>  <Rbt.Receptor>
prm/pocket_docking_3.prm

>  <SCORE>
-19.2824

>  <SCORE.INTER>
-14.0454

>  <SCORE.INTER.CONST>
1

>  <SCORE.INTER.POLAR>
0

>  <SCORE.INTER.ROT>
8

>  <SCORE.INTER.SOLV>
9.05116

>  <SCORE.INTER.VDW>
-21.314

>  <SCORE.INTER.norm>
-0.540208

>  <SCORE.INTRA>
-5.23903

>  <SCORE.INTRA.DIHEDRAL>
-9.60495

>  <SCORE.INTRA.DIHEDRAL.0>
16.4846

>  <SCORE.INTRA.POLAR>
0

>  <SCORE.INTRA.POLAR.0>
0

>  <SCORE.INTRA.REPUL>
0

>  <SCORE.INTRA.REPUL.0>
0

>  <SCORE.INTRA.SOLV>
2.38887

>  <SCORE.INTRA.SOLV.lig_0>
-82.6983

>  <SCORE.INTRA.VDW>
-1.631

>  <SCORE.INTRA.VDW.0>
-2.11466

>  <SCORE.INTRA.norm>
-0.201501

>  <SCORE.RESTR>
0.00208062

>  <SCORE.RESTR.CAVITY>
0.00208062

>  <SCORE.RESTR.norm>
8.0024e-05

>  <SCORE.SYSTEM>
0

>  <SCORE.SYSTEM.CONST>
0

>  <SCORE.SYSTEM.DIHEDRAL>
0

>  <SCORE.SYSTEM.SOLV>
0

>  <SCORE.SYSTEM.norm>
0

>  <SCORE.heavy>
26

>  <SCORE.norm>
-0.741629

>  <RMSD>
2.541

$$$$
ligand
 OpenBabel11021811423D
libRbt.so/2013.1/901 2013/11/27
 26 27  0  0  0  0  0  0  0  0999 V2000
   -0.1615  -19.3021  -86.0529 C   0  0  0  0  0  0  0  0  0  0  0  0
    1.7881  -18.3506  -93.6027 C   0  0  0  0  0  0  0  0  0  0  0  0
    3.1525  -15.9146  -97.3478 P   0  0  2  0  0  0  0  0  0  0  0  0
    4.1234  -13.5028  -98.3024 P   0  0  2  0  0  0  0  0  0  0  0  0
    2.5426  -17.3396  -90.7113 C   0  0  0  0  0  0  0  0  0  0  0  0
    2.3001  -17.6043  -88.2554 C   0  0  0  0  0  0  0  0  0  0  0  0
    1.8115  -17.8965  -89.5222 C   0  0  0  0  0  0  0  0  0  0  0  0
    0.6367  -18.6458  -89.6359 C   0  0  0  0  0  0  0  0  0  0  0  0
    0.0677  -18.9761  -90.7955 N   0  0  0  0  0  0  0  0  0  0  0  0
    0.0148  -19.0851  -88.4959 N   0  0  0  0  0  0  0  0  0  0  0  0
    0.5302  -18.7983  -87.2633 C   0  0  0  0  0  0  0  0  0  0  0  0
    1.6616  -18.0603  -87.1221 N   0  0  0  0  0  0  0  0  0  0  0  0
    4.4941  -16.4490  -96.8867 O   0  5  0  0  0  0  0  0  0  0  0  0
    3.6283  -13.8709  -99.6830 O   0  0  0  0  0  0  0  0  0  0  0  0
    0.2690  -14.8492  -92.7107 S   0  0  0  0  0  0  0  0  0  0  0  0
    1.1367  -15.4357  -91.4619 C   0  0  0  0  0  0  0  0  0  0  0  0
    2.8866  -16.5441  -98.7126 O   0  0  0  0  0  0  0  0  0  0  0  0
    5.5587  -13.9369  -98.0854 O   0  5  0  0  0  0  0  0  0  0  0  0
    1.7058  -16.6758  -91.6821 N   0  0  0  0  0  0  0  0  0  0  0  0
    3.2237  -14.3043  -97.2587 O   0  0  0  0  0  0  0  0  0  0  0  0
    3.9881  -12.0030  -98.1341 O   0  0  0  0  0  0  0  0  0  0  0  0
    1.3768  -17.0918  -92.9487 C   0  0  1  0  0  0  0  0  0  0  0  0
    0.5815  -16.1372  -93.6019 C   0  0  2  0  0  0  0  0  0  0  0  0
   -0.0508  -16.0314  -94.9678 C   0  0  0  0  0  0  0  0  0  0  0  0
    0.8802  -15.3253  -95.9593 C   0  0  0  0  0  0  0  0  0  0  0  0
    2.0699  -16.0885  -96.1168 O   0  0  0  0  0  0  0  0  0  0  0  0
  1 11  1  0  0  0  0
  3 13  1  1  0  0  0
  3 17  2  0  0  0  0
  3 20  1  0  0  0  0
  3 26  1  0  0  0  0
  4 14  1  6  0  0  0
  4 18  1  0  0  0  0
  4 21  2  0  0  0  0
  4 20  1  0  0  0  0
  5 19  1  0  0  0  0
  5  7  1  0  0  0  0
  6  7  2  0  0  0  0
  6 12  1  0  0  0  0
  7  8  1  0  0  0  0
  8  9  1  0  0  0  0
  8 10  2  0  0  0  0
 10 11  1  0  0  0  0
 11 12  2  0  0  0  0
 15 23  1  0  0  0  0
 15 16  1  0  0  0  0
 16 19  1  0  0  0  0
 19 22  1  0  0  0  0
 22  2  1  6  0  0  0
 22 23  1  0  0  0  0
 23 24  1  6  0  0  0
 24 25  1  0  0  0  0
 25 26  1  0  0  0  0
M  CHG  2  13  -1  18  -1
M  END
>  <CHROM.1>
71.21103196,72.99096885,-130.74997129,57.33541092,88.35080802,62.27208267
163.44641876,156.89512234,2.07579313,-16.18088044,-93.85734831,-3.03842493
-1.29265287,-2.64539037

>  <Name>
ligand

>  <RI>
0

>  <Rbt.Current_Directory>
/home/itssahil/PROJECTS/Mol_Feturizer/New_Systems/rnas/2CKY

>  <Rbt.Executable>
rbdock ($Id: //depot/dev/client3/rdock/2013.1/src/exe/rbdock.cxx#4 $)

>  <Rbt.Library>
libRbt.so (2013.1, Build901 2013/11/27)

>  <Rbt.Parameter_File>
/export/apps/rDock/src/rDock_2013.1_src/data/scripts/dock_solv.prm

>  <Rbt.Receptor>
prm/pocket_docking_3.prm

>  <SCORE>
-20.7704

>  <SCORE.INTER>
-15.825

>  <SCORE.INTER.CONST>
1

>  <SCORE.INTER.POLAR>
0

>  <SCORE.INTER.ROT>
8

>  <SCORE.INTER.SOLV>
14.7075

>  <SCORE.INTER.VDW>
-24.3858

>  <SCORE.INTER.norm>
-0.608654

>  <SCORE.INTRA>
-4.9587

>  <SCORE.INTRA.DIHEDRAL>
-9.50525

>  <SCORE.INTRA.DIHEDRAL.0>
16.4846

>  <SCORE.INTRA.POLAR>
0

>  <SCORE.INTRA.POLAR.0>
0

>  <SCORE.INTRA.REPUL>
0

>  <SCORE.INTRA.REPUL.0>
0

>  <SCORE.INTRA.SOLV>
3.4046

>  <SCORE.INTRA.SOLV.lig_0>
-82.6983

>  <SCORE.INTRA.VDW>
-1.90838

>  <SCORE.INTRA.VDW.0>
-2.11466

>  <SCORE.INTRA.norm>
-0.190719

>  <SCORE.RESTR>
0.0133365

>  <SCORE.RESTR.CAVITY>
0.0133365

>  <SCORE.RESTR.norm>
0.000512941

>  <SCORE.SYSTEM>
0

>  <SCORE.SYSTEM.CONST>
0

>  <SCORE.SYSTEM.DIHEDRAL>
0

>  <SCORE.SYSTEM.SOLV>
0

>  <SCORE.SYSTEM.norm>
0

>  <SCORE.heavy>
26

>  <SCORE.norm>
-0.798861

>  <RMSD>
2.580

$$$$
ligand
 OpenBabel11021811423D
libRbt.so/2013.1/901 2013/11/27
 26 27  0  0  0  0  0  0  0  0999 V2000
    0.9480  -18.8070  -87.4095 C   0  0  0  0  0  0  0  0  0  0  0  0
   -1.7964  -16.0001  -94.9039 C   0  0  0  0  0  0  0  0  0  0  0  0
    0.8708  -16.4316  -99.3488 P   0  0  2  0  0  0  0  0  0  0  0  0
    0.4989  -13.6988  -99.6025 P   0  0  2  0  0  0  0  0  0  0  0  0
    0.1775  -16.1875  -92.4503 C   0  0  0  0  0  0  0  0  0  0  0  0
   -0.6427  -17.4594  -90.4831 C   0  0  0  0  0  0  0  0  0  0  0  0
    0.4254  -16.8405  -91.1196 C   0  0  0  0  0  0  0  0  0  0  0  0
    1.6897  -16.8978  -90.5257 C   0  0  0  0  0  0  0  0  0  0  0  0
    2.7887  -16.3534  -91.0487 N   0  0  0  0  0  0  0  0  0  0  0  0
    1.8325  -17.5452  -89.3257 N   0  0  0  0  0  0  0  0  0  0  0  0
    0.7588  -18.1280  -88.7136 C   0  0  0  0  0  0  0  0  0  0  0  0
   -0.4780  -18.1007  -89.2741 N   0  0  0  0  0  0  0  0  0  0  0  0
    2.3769  -16.3517  -99.1962 O   0  5  0  0  0  0  0  0  0  0  0  0
   -0.1417  -13.8868 -100.9593 O   0  0  0  0  0  0  0  0  0  0  0  0
    0.5258  -19.1567  -94.9863 S   0  0  0  0  0  0  0  0  0  0  0  0
    0.8410  -18.2439  -93.6734 C   0  0  0  0  0  0  0  0  0  0  0  0
    0.6062  -16.7891 -100.8089 O   0  0  0  0  0  0  0  0  0  0  0  0
    1.9968  -13.4984  -99.7108 O   0  5  0  0  0  0  0  0  0  0  0  0
    0.0734  -17.0998  -93.5640 N   0  0  0  0  0  0  0  0  0  0  0  0
    0.2597  -15.0472  -98.7865 O   0  0  0  0  0  0  0  0  0  0  0  0
   -0.1520  -12.5064  -98.9315 O   0  0  0  0  0  0  0  0  0  0  0  0
   -0.7867  -17.0436  -94.6329 C   0  0  1  0  0  0  0  0  0  0  0  0
   -0.6124  -18.1503  -95.4787 C   0  0  2  0  0  0  0  0  0  0  0  0
   -1.2585  -18.6279  -96.7557 C   0  0  0  0  0  0  0  0  0  0  0  0
   -1.1094  -17.5932  -97.8762 C   0  0  0  0  0  0  0  0  0  0  0  0
    0.2716  -17.3689  -98.1322 O   0  0  0  0  0  0  0  0  0  0  0  0
  1 11  1  0  0  0  0
  3 13  1  1  0  0  0
  3 17  2  0  0  0  0
  3 20  1  0  0  0  0
  3 26  1  0  0  0  0
  4 14  1  6  0  0  0
  4 18  1  0  0  0  0
  4 21  2  0  0  0  0
  4 20  1  0  0  0  0
  5 19  1  0  0  0  0
  5  7  1  0  0  0  0
  6  7  2  0  0  0  0
  6 12  1  0  0  0  0
  7  8  1  0  0  0  0
  8  9  1  0  0  0  0
  8 10  2  0  0  0  0
 10 11  1  0  0  0  0
 11 12  2  0  0  0  0
 15 23  1  0  0  0  0
 15 16  1  0  0  0  0
 16 19  1  0  0  0  0
 19 22  1  0  0  0  0
 22  2  1  1  0  0  0
 22 23  1  0  0  0  0
 23 24  1  1  0  0  0
 24 25  1  0  0  0  0
 25 26  1  0  0  0  0
M  CHG  2  13  -1  18  -1
M  END
>  <CHROM.1>
69.81858452,-36.73339748,-76.82866348,61.24754704,-121.14877044,60.38550863
174.30480348,174.81177483,0.42662159,-16.58148742,-95.51407476,-1.51618748
-1.30547083,-1.23410861

>  <Name>
ligand

>  <RI>
0

>  <Rbt.Current_Directory>
/home/itssahil/PROJECTS/Mol_Feturizer/New_Systems/rnas/2CKY

>  <Rbt.Executable>
rbdock ($Id: //depot/dev/client3/rdock/2013.1/src/exe/rbdock.cxx#4 $)

>  <Rbt.Library>
libRbt.so (2013.1, Build901 2013/11/27)

>  <Rbt.Parameter_File>
/export/apps/rDock/src/rDock_2013.1_src/data/scripts/dock_solv.prm

>  <Rbt.Receptor>
prm/pocket_docking_3.prm

>  <SCORE>
-18.453

>  <SCORE.INTER>
-11.1283

>  <SCORE.INTER.CONST>
1

>  <SCORE.INTER.POLAR>
0

>  <SCORE.INTER.ROT>
8

>  <SCORE.INTER.SOLV>
9.95773

>  <SCORE.INTER.VDW>
-19.6714

>  <SCORE.INTER.norm>
-0.428011

>  <SCORE.INTRA>
-7.32472

>  <SCORE.INTRA.DIHEDRAL>
-11.6468

>  <SCORE.INTRA.DIHEDRAL.0>
16.4846

>  <SCORE.INTRA.POLAR>
0

>  <SCORE.INTRA.POLAR.0>
0

>  <SCORE.INTRA.REPUL>
0

>  <SCORE.INTRA.REPUL.0>
0

>  <SCORE.INTRA.SOLV>
0.386226

>  <SCORE.INTRA.SOLV.lig_0>
-82.6983

>  <SCORE.INTRA.VDW>
-1.69445

>  <SCORE.INTRA.VDW.0>
-2.11466

>  <SCORE.INTRA.norm>
-0.28172

>  <SCORE.RESTR>
0

>  <SCORE.RESTR.CAVITY>
0

>  <SCORE.RESTR.norm>
0

>  <SCORE.SYSTEM>
0

>  <SCORE.SYSTEM.CONST>
0

>  <SCORE.SYSTEM.DIHEDRAL>
0

>  <SCORE.SYSTEM.SOLV>
0

>  <SCORE.SYSTEM.norm>
0

>  <SCORE.heavy>
26

>  <SCORE.norm>
-0.709731

>  <RMSD>
2.599

$$$$
ligand
 OpenBabel11021811423D
libRbt.so/2013.1/901 2013/11/27
 26 27  0  0  0  0  0  0  0  0999 V2000
   -0.0148  -19.1502  -85.9917 C   0  0  0  0  0  0  0  0  0  0  0  0
    0.6224  -14.7720  -92.7537 C   0  0  0  0  0  0  0  0  0  0  0  0
   -1.5774  -14.1414  -98.2127 P   0  0  2  0  0  0  0  0  0  0  0  0
   -1.1635  -16.4305  -99.7158 P   0  0  2  0  0  0  0  0  0  0  0  0
    1.6968  -17.2488  -91.1220 C   0  0  0  0  0  0  0  0  0  0  0  0
    0.0219  -18.2658  -89.5986 C   0  0  0  0  0  0  0  0  0  0  0  0
    1.2860  -17.7115  -89.7524 C   0  0  0  0  0  0  0  0  0  0  0  0
    2.1382  -17.6577  -88.6455 C   0  0  0  0  0  0  0  0  0  0  0  0
    3.3753  -17.1613  -88.6755 N   0  0  0  0  0  0  0  0  0  0  0  0
    1.6937  -18.1348  -87.4396 N   0  0  0  0  0  0  0  0  0  0  0  0
    0.4371  -18.6568  -87.3145 C   0  0  0  0  0  0  0  0  0  0  0  0
   -0.4071  -18.7352  -88.3756 N   0  0  0  0  0  0  0  0  0  0  0  0
   -2.4677  -12.9528  -98.5172 O   0  5  0  0  0  0  0  0  0  0  0  0
   -2.0025  -17.3833 -100.5373 O   0  0  0  0  0  0  0  0  0  0  0  0
   -1.2782  -18.1122  -93.5247 S   0  0  0  0  0  0  0  0  0  0  0  0
   -0.0964  -18.3613  -92.4304 C   0  0  0  0  0  0  0  0  0  0  0  0
   -0.1497  -13.6975  -98.5205 O   0  0  0  0  0  0  0  0  0  0  0  0
   -0.4234  -17.1476  -98.6050 O   0  5  0  0  0  0  0  0  0  0  0  0
    0.6369  -17.2368  -92.1017 N   0  0  0  0  0  0  0  0  0  0  0  0
   -2.1693  -15.4029  -99.0277 O   0  0  0  0  0  0  0  0  0  0  0  0
   -0.1888  -15.7351 -100.6443 O   0  0  0  0  0  0  0  0  0  0  0  0
    0.1460  -16.1689  -92.8117 C   0  0  1  0  0  0  0  0  0  0  0  0
   -0.9269  -16.5577  -93.6292 C   0  0  2  0  0  0  0  0  0  0  0  0
   -1.8467  -15.8461  -94.5905 C   0  0  0  0  0  0  0  0  0  0  0  0
   -1.1454  -15.5576  -95.9221 C   0  0  0  0  0  0  0  0  0  0  0  0
   -1.9737  -14.7225  -96.7218 O   0  0  0  0  0  0  0  0  0  0  0  0
  1 11  1  0  0  0  0
  3 13  1  6  0  0  0
  3 17  2  0  0  0  0
  3 20  1  0  0  0  0
  3 26  1  0  0  0  0
  4 14  1  6  0  0  0
  4 18  1  0  0  0  0
  4 21  2  0  0  0  0
  4 20  1  0  0  0  0
  5 19  1  0  0  0  0
  5  7  1  0  0  0  0
  6  7  2  0  0  0  0
  6 12  1  0  0  0  0
  7  8  1  0  0  0  0
  8  9  1  0  0  0  0
  8 10  2  0  0  0  0
 10 11  1  0  0  0  0
 11 12  2  0  0  0  0
 15 23  1  0  0  0  0
 15 16  1  0  0  0  0
 16 19  1  0  0  0  0
 19 22  1  0  0  0  0
 22  2  1  1  0  0  0
 22 23  1  0  0  0  0
 23 24  1  1  0  0  0
 24 25  1  0  0  0  0
 25 26  1  0  0  0  0
M  CHG  2  13  -1  18  -1
M  END
>  <CHROM.1>
140.69870340,-57.62609990,9.53856844,-172.94405490,-103.85137538,-171.65356158
178.20806099,-160.89568675,-0.41740115,-16.52763135,-94.34255418,0.89111768
1.23087087,2.48037343

>  <Name>
ligand

>  <RI>
0

>  <Rbt.Current_Directory>
/home/itssahil/PROJECTS/Mol_Feturizer/New_Systems/rnas/2CKY

>  <Rbt.Executable>
rbdock ($Id: //depot/dev/client3/rdock/2013.1/src/exe/rbdock.cxx#4 $)

>  <Rbt.Library>
libRbt.so (2013.1, Build901 2013/11/27)

>  <Rbt.Parameter_File>
/export/apps/rDock/src/rDock_2013.1_src/data/scripts/dock_solv.prm

>  <Rbt.Receptor>
prm/pocket_docking_3.prm

>  <SCORE>
-20.7276

>  <SCORE.INTER>
-16.1805

>  <SCORE.INTER.CONST>
1

>  <SCORE.INTER.POLAR>
0

>  <SCORE.INTER.ROT>
8

>  <SCORE.INTER.SOLV>
16.752

>  <SCORE.INTER.VDW>
-25.3044

>  <SCORE.INTER.norm>
-0.622328

>  <SCORE.INTRA>
-4.54705

>  <SCORE.INTRA.DIHEDRAL>
-8.80866

>  <SCORE.INTRA.DIHEDRAL.0>
16.4846

>  <SCORE.INTRA.POLAR>
0

>  <SCORE.INTRA.POLAR.0>
0

>  <SCORE.INTRA.REPUL>
0

>  <SCORE.INTRA.REPUL.0>
0

>  <SCORE.INTRA.SOLV>
1.83104

>  <SCORE.INTRA.SOLV.lig_0>
-82.6983

>  <SCORE.INTRA.VDW>
-1.05824

>  <SCORE.INTRA.VDW.0>
-2.11466

>  <SCORE.INTRA.norm>
-0.174887

>  <SCORE.RESTR>
0

>  <SCORE.RESTR.CAVITY>
0

>  <SCORE.RESTR.norm>
0

>  <SCORE.SYSTEM>
0

>  <SCORE.SYSTEM.CONST>
0

>  <SCORE.SYSTEM.DIHEDRAL>
0

>  <SCORE.SYSTEM.SOLV>
0

>  <SCORE.SYSTEM.norm>
0

>  <SCORE.heavy>
26

>  <SCORE.norm>
-0.797214

>  <RMSD>
2.603

$$$$
ligand
 OpenBabel11021811423D
libRbt.so/2013.1/901 2013/11/27
 26 27  0  0  0  0  0  0  0  0999 V2000
    0.2474  -18.9469  -86.3273 C   0  0  0  0  0  0  0  0  0  0  0  0
    1.4313  -15.4637  -93.6274 C   0  0  0  0  0  0  0  0  0  0  0  0
    3.2109  -15.9859  -97.8796 P   0  0  2  0  0  0  0  0  0  0  0  0
    4.6233  -13.6057  -97.7768 P   0  0  2  0  0  0  0  0  0  0  0  0
    2.6571  -16.9553  -91.1327 C   0  0  0  0  0  0  0  0  0  0  0  0
    0.7526  -17.9063  -89.8565 C   0  0  0  0  0  0  0  0  0  0  0  0
    2.0629  -17.4458  -89.8424 C   0  0  0  0  0  0  0  0  0  0  0  0
    2.7871  -17.5085  -88.6483 C   0  0  0  0  0  0  0  0  0  0  0  0
    4.0524  -17.1092  -88.5173 N   0  0  0  0  0  0  0  0  0  0  0  0
    2.1767  -18.0035  -87.5250 N   0  0  0  0  0  0  0  0  0  0  0  0
    0.8794  -18.4310  -87.5650 C   0  0  0  0  0  0  0  0  0  0  0  0
    0.1562  -18.3955  -88.7141 N   0  0  0  0  0  0  0  0  0  0  0  0
    4.4282  -16.8769  -97.7298 O   0  5  0  0  0  0  0  0  0  0  0  0
    4.0735  -13.1597  -99.1131 O   0  0  0  0  0  0  0  0  0  0  0  0
    1.2873  -19.3712  -93.8996 S   0  0  0  0  0  0  0  0  0  0  0  0
    1.9949  -18.9167  -92.5035 C   0  0  0  0  0  0  0  0  0  0  0  0
    2.8915  -15.9437  -99.3716 O   0  0  0  0  0  0  0  0  0  0  0  0
    5.9118  -14.3876  -97.9316 O   0  5  0  0  0  0  0  0  0  0  0  0
    2.0984  -17.5504  -92.3231 N   0  0  0  0  0  0  0  0  0  0  0  0
    3.5455  -14.5914  -97.1382 O   0  0  0  0  0  0  0  0  0  0  0  0
    4.8450  -12.3755  -96.9205 O   0  0  0  0  0  0  0  0  0  0  0  0
    1.5484  -16.9203  -93.4121 C   0  0  1  0  0  0  0  0  0  0  0  0
    1.0646  -17.8531  -94.3429 C   0  0  2  0  0  0  0  0  0  0  0  0
    0.3666  -17.7632  -95.6775 C   0  0  0  0  0  0  0  0  0  0  0  0
    1.3744  -17.7080  -96.8305 C   0  0  0  0  0  0  0  0  0  0  0  0
    2.0724  -16.4695  -96.7898 O   0  0  0  0  0  0  0  0  0  0  0  0
  1 11  1  0  0  0  0
  3 13  1  1  0  0  0
  3 17  2  0  0  0  0
  3 20  1  0  0  0  0
  3 26  1  0  0  0  0
  4 14  1  6  0  0  0
  4 18  1  0  0  0  0
  4 21  2  0  0  0  0
  4 20  1  0  0  0  0
  5 19  1  0  0  0  0
  5  7  1  0  0  0  0
  6  7  2  0  0  0  0
  6 12  1  0  0  0  0
  7  8  1  0  0  0  0
  8  9  1  0  0  0  0
  8 10  2  0  0  0  0
 10 11  1  0  0  0  0
 11 12  2  0  0  0  0
 15 23  1  0  0  0  0
 15 16  1  0  0  0  0
 16 19  1  0  0  0  0
 19 22  1  0  0  0  0
 22  2  1  1  0  0  0
 22 23  1  0  0  0  0
 23 24  1  1  0  0  0
 24 25  1  0  0  0  0
 25 26  1  0  0  0  0
M  CHG  2  13  -1  18  -1
M  END
>  <CHROM.1>
69.97944599,-51.95628637,-27.56018436,63.75021604,-91.20025776,-68.53928512
-177.95425545,-67.47144859,2.55144605,-16.61080104,-94.09726827,-1.97067829
-0.88675539,-1.52517576

>  <Name>
ligand

>  <RI>
0

>  <Rbt.Current_Directory>
/home/itssahil/PROJECTS/Mol_Feturizer/New_Systems/rnas/2CKY

>  <Rbt.Executable>
rbdock ($Id: //depot/dev/client3/rdock/2013.1/src/exe/rbdock.cxx#4 $)

>  <Rbt.Library>
libRbt.so (2013.1, Build901 2013/11/27)

>  <Rbt.Parameter_File>
/export/apps/rDock/src/rDock_2013.1_src/data/scripts/dock_solv.prm

>  <Rbt.Receptor>
prm/pocket_docking_4.prm

>  <SCORE>
-22.0575

>  <SCORE.INTER>
-15.0941

>  <SCORE.INTER.CONST>
1

>  <SCORE.INTER.POLAR>
0

>  <SCORE.INTER.ROT>
8

>  <SCORE.INTER.SOLV>
23.6194

>  <SCORE.INTER.VDW>
-26.8692

>  <SCORE.INTER.norm>
-0.580544

>  <SCORE.INTRA>
-6.96335

>  <SCORE.INTRA.DIHEDRAL>
-11.004

>  <SCORE.INTRA.DIHEDRAL.0>
16.4846

>  <SCORE.INTRA.POLAR>
0

>  <SCORE.INTRA.POLAR.0>
0

>  <SCORE.INTRA.REPUL>
0

>  <SCORE.INTRA.REPUL.0>
0

>  <SCORE.INTRA.SOLV>
0.359271

>  <SCORE.INTRA.SOLV.lig_0>
-82.6983

>  <SCORE.INTRA.VDW>
-1.64101

>  <SCORE.INTRA.VDW.0>
-2.11466

>  <SCORE.INTRA.norm>
-0.267821

>  <SCORE.RESTR>
0

>  <SCORE.RESTR.CAVITY>
0

>  <SCORE.RESTR.norm>
0

>  <SCORE.SYSTEM>
0

>  <SCORE.SYSTEM.CONST>
0

>  <SCORE.SYSTEM.DIHEDRAL>
0

>  <SCORE.SYSTEM.SOLV>
0

>  <SCORE.SYSTEM.norm>
0

>  <SCORE.heavy>
26

>  <SCORE.norm>
-0.848365

>  <RMSD>
2.636

$$$$
ligand
 OpenBabel11021811423D
libRbt.so/2013.1/901 2013/11/27
 26 27  0  0  0  0  0  0  0  0999 V2000
   -0.2981  -19.3164  -86.1747 C   0  0  0  0  0  0  0  0  0  0  0  0
    2.6038  -15.8064  -93.5482 C   0  0  0  0  0  0  0  0  0  0  0  0
    0.7403  -15.4916  -98.5071 P   0  0  2  0  0  0  0  0  0  0  0  0
   -1.1789  -13.5289  -98.1393 P   0  0  2  0  0  0  0  0  0  0  0  0
    2.4714  -17.0359  -90.6461 C   0  0  0  0  0  0  0  0  0  0  0  0
    0.4355  -17.9241  -89.5387 C   0  0  0  0  0  0  0  0  0  0  0  0
    1.7848  -17.6102  -89.4389 C   0  0  0  0  0  0  0  0  0  0  0  0
    2.4561  -17.8905  -88.2451 C   0  0  0  0  0  0  0  0  0  0  0  0
    3.7503  -17.6459  -88.0378 N   0  0  0  0  0  0  0  0  0  0  0  0
    1.7588  -18.4476  -87.2045 N   0  0  0  0  0  0  0  0  0  0  0  0
    0.4268  -18.7274  -87.3258 C   0  0  0  0  0  0  0  0  0  0  0  0
   -0.2479  -18.4794  -88.4781 N   0  0  0  0  0  0  0  0  0  0  0  0
    1.9927  -14.6391  -98.4547 O   0  5  0  0  0  0  0  0  0  0  0  0
   -0.2949  -12.8566  -99.1655 O   0  0  0  0  0  0  0  0  0  0  0  0
    1.3642  -19.5239  -93.4661 S   0  0  0  0  0  0  0  0  0  0  0  0
    1.7038  -18.9966  -91.9618 C   0  0  0  0  0  0  0  0  0  0  0  0
    0.4115  -15.6798  -99.9857 O   0  0  0  0  0  0  0  0  0  0  0  0
   -1.4758  -12.6151  -96.9678 O   0  5  0  0  0  0  0  0  0  0  0  0
    2.1585  -17.6933  -91.8924 N   0  0  0  0  0  0  0  0  0  0  0  0
   -0.3640  -14.7761  -97.5720 O   0  0  0  0  0  0  0  0  0  0  0  0
   -2.4622  -13.9534  -98.8238 O   0  0  0  0  0  0  0  0  0  0  0  0
    2.1965  -17.1728  -93.1624 C   0  0  1  0  0  0  0  0  0  0  0  0
    1.7666  -18.1176  -94.1074 C   0  0  2  0  0  0  0  0  0  0  0  0
    1.5828  -18.1197  -95.6049 C   0  0  0  0  0  0  0  0  0  0  0  0
    1.1834  -16.7324  -96.1190 C   0  0  0  0  0  0  0  0  0  0  0  0
    0.9543  -16.7954  -97.5213 O   0  0  0  0  0  0  0  0  0  0  0  0
  1 11  1  0  0  0  0
  3 13  1  1  0  0  0
  3 17  2  0  0  0  0
  3 20  1  0  0  0  0
  3 26  1  0  0  0  0
  4 14  1  6  0  0  0
  4 18  1  0  0  0  0
  4 21  2  0  0  0  0
  4 20  1  0  0  0  0
  5 19  1  0  0  0  0
  5  7  1  0  0  0  0
  6  7  2  0  0  0  0
  6 12  1  0  0  0  0
  7  8  1  0  0  0  0
  8  9  1  0  0  0  0
  8 10  2  0  0  0  0
 10 11  1  0  0  0  0
 11 12  2  0  0  0  0
 15 23  1  0  0  0  0
 15 16  1  0  0  0  0
 16 19  1  0  0  0  0
 19 22  1  0  0  0  0
 22  2  1  1  0  0  0
 22 23  1  0  0  0  0
 23 24  1  1  0  0  0
 24 25  1  0  0  0  0
 25 26  1  0  0  0  0
M  CHG  2  13  -1  18  -1
M  END
>  <CHROM.1>
79.58853191,-23.29330543,-44.09392236,-27.69390028,147.73549457,-177.04005968
-169.78621600,61.13884865,0.84099580,-16.57485524,-94.10238580,1.33485116
-0.83836493,1.77953716

>  <Name>
ligand

>  <RI>
0

>  <Rbt.Current_Directory>
/home/itssahil/PROJECTS/Mol_Feturizer/New_Systems/rnas/2CKY

>  <Rbt.Executable>
rbdock ($Id: //depot/dev/client3/rdock/2013.1/src/exe/rbdock.cxx#4 $)

>  <Rbt.Library>
libRbt.so (2013.1, Build901 2013/11/27)

>  <Rbt.Parameter_File>
/export/apps/rDock/src/rDock_2013.1_src/data/scripts/dock_solv.prm

>  <Rbt.Receptor>
prm/pocket_docking_3.prm

>  <SCORE>
-17.9686

>  <SCORE.INTER>
-13.8726

>  <SCORE.INTER.CONST>
1

>  <SCORE.INTER.POLAR>
0

>  <SCORE.INTER.ROT>
8

>  <SCORE.INTER.SOLV>
17.0081

>  <SCORE.INTER.VDW>
-23.8511

>  <SCORE.INTER.norm>
-0.533563

>  <SCORE.INTRA>
-4.09977

>  <SCORE.INTRA.DIHEDRAL>
-9.0977

>  <SCORE.INTRA.DIHEDRAL.0>
16.4846

>  <SCORE.INTRA.POLAR>
0

>  <SCORE.INTRA.POLAR.0>
0

>  <SCORE.INTRA.REPUL>
0

>  <SCORE.INTRA.REPUL.0>
0

>  <SCORE.INTRA.SOLV>
-0.500916

>  <SCORE.INTRA.SOLV.lig_0>
-82.6983

>  <SCORE.INTRA.VDW>
0.699543

>  <SCORE.INTRA.VDW.0>
-2.11466

>  <SCORE.INTRA.norm>
-0.157683

>  <SCORE.RESTR>
0.00377448

>  <SCORE.RESTR.CAVITY>
0.00377448

>  <SCORE.RESTR.norm>
0.000145172

>  <SCORE.SYSTEM>
0

>  <SCORE.SYSTEM.CONST>
0

>  <SCORE.SYSTEM.DIHEDRAL>
0

>  <SCORE.SYSTEM.SOLV>
0

>  <SCORE.SYSTEM.norm>
0

>  <SCORE.heavy>
26

>  <SCORE.norm>
-0.691101

>  <RMSD>
2.652

$$$$
ligand
 OpenBabel11021811423D
libRbt.so/2013.1/901 2013/11/27
 26 27  0  0  0  0  0  0  0  0999 V2000
   -0.4406  -19.3086  -86.0769 C   0  0  0  0  0  0  0  0  0  0  0  0
    2.6913  -17.7725  -93.7838 C   0  0  0  0  0  0  0  0  0  0  0  0
   -0.3900  -14.4452  -97.6531 P   0  0  2  0  0  0  0  0  0  0  0  0
   -1.4803  -15.3123 -100.0468 P   0  0  2  0  0  0  0  0  0  0  0  0
    2.5303  -17.5232  -90.6432 C   0  0  0  0  0  0  0  0  0  0  0  0
    2.2766  -17.9459  -88.2107 C   0  0  0  0  0  0  0  0  0  0  0  0
    1.7207  -18.0256  -89.4809 C   0  0  0  0  0  0  0  0  0  0  0  0
    0.4187  -18.5158  -89.6179 C   0  0  0  0  0  0  0  0  0  0  0  0
   -0.2221  -18.6260  -90.7820 N   0  0  0  0  0  0  0  0  0  0  0  0
   -0.2612  -18.9205  -88.4984 N   0  0  0  0  0  0  0  0  0  0  0  0
    0.3194  -18.8485  -87.2635 C   0  0  0  0  0  0  0  0  0  0  0  0
    1.5772  -18.3631  -87.0986 N   0  0  0  0  0  0  0  0  0  0  0  0
   -0.4996  -13.1724  -96.8370 O   0  5  0  0  0  0  0  0  0  0  0  0
   -0.6708  -14.5074 -101.0385 O   0  0  0  0  0  0  0  0  0  0  0  0
    0.1941  -15.0161  -92.5472 S   0  0  0  0  0  0  0  0  0  0  0  0
    0.8906  -15.7716  -91.2822 C   0  0  0  0  0  0  0  0  0  0  0  0
    1.0386  -14.4890  -98.1889 O   0  0  0  0  0  0  0  0  0  0  0  0
   -2.8883  -15.5667 -100.5453 O   0  5  0  0  0  0  0  0  0  0  0  0
    1.7838  -16.7700  -91.6224 N   0  0  0  0  0  0  0  0  0  0  0  0
   -1.5988  -14.4322  -98.7229 O   0  0  0  0  0  0  0  0  0  0  0  0
   -0.7583  -16.6206  -99.7959 O   0  0  0  0  0  0  0  0  0  0  0  0
    1.8491  -16.8536  -92.9914 C   0  0  1  0  0  0  0  0  0  0  0  0
    1.0012  -15.9115  -93.5948 C   0  0  2  0  0  0  0  0  0  0  0  0
    0.6718  -15.5311  -95.0172 C   0  0  0  0  0  0  0  0  0  0  0  0
   -0.7809  -15.8747  -95.3634 C   0  0  0  0  0  0  0  0  0  0  0  0
   -0.9905  -15.6927  -96.7584 O   0  0  0  0  0  0  0  0  0  0  0  0
  1 11  1  0  0  0  0
  3 13  1  1  0  0  0
  3 17  2  0  0  0  0
  3 20  1  0  0  0  0
  3 26  1  0  0  0  0
  4 14  1  6  0  0  0
  4 18  1  0  0  0  0
  4 21  2  0  0  0  0
  4 20  1  0  0  0  0
  5 19  1  0  0  0  0
  5  7  1  0  0  0  0
  6  7  2  0  0  0  0
  6 12  1  0  0  0  0
  7  8  1  0  0  0  0
  8  9  1  0  0  0  0
  8 10  2  0  0  0  0
 10 11  1  0  0  0  0
 11 12  2  0  0  0  0
 15 23  1  0  0  0  0
 15 16  1  0  0  0  0
 16 19  1  0  0  0  0
 19 22  1  0  0  0  0
 22  2  1  6  0  0  0
 22 23  1  0  0  0  0
 23 24  1  1  0  0  0
 24 25  1  0  0  0  0
 25 26  1  0  0  0  0
M  CHG  2  13  -1  18  -1
M  END
>  <CHROM.1>
157.81921954,46.30479572,-138.49481114,-82.80545728,-67.01645087,-171.16931697
-40.80170775,-40.22504982,0.13466966,-16.25885536,-94.24122950,1.36018146
0.56402241,1.98225917

>  <Name>
ligand

>  <RI>
0

>  <Rbt.Current_Directory>
/home/itssahil/PROJECTS/Mol_Feturizer/New_Systems/rnas/2CKY

>  <Rbt.Executable>
rbdock ($Id: //depot/dev/client3/rdock/2013.1/src/exe/rbdock.cxx#4 $)

>  <Rbt.Library>
libRbt.so (2013.1, Build901 2013/11/27)

>  <Rbt.Parameter_File>
/export/apps/rDock/src/rDock_2013.1_src/data/scripts/dock_solv.prm

>  <Rbt.Receptor>
prm/pocket_docking_2.prm

>  <SCORE>
-14.4606

>  <SCORE.INTER>
-14.2442

>  <SCORE.INTER.CONST>
1

>  <SCORE.INTER.POLAR>
0

>  <SCORE.INTER.ROT>
8

>  <SCORE.INTER.SOLV>
12.1685

>  <SCORE.INTER.VDW>
-22.4857

>  <SCORE.INTER.norm>
-0.547855

>  <SCORE.INTRA>
-1.98781

>  <SCORE.INTRA.DIHEDRAL>
-6.80785

>  <SCORE.INTRA.DIHEDRAL.0>
16.4846

>  <SCORE.INTRA.POLAR>
0

>  <SCORE.INTRA.POLAR.0>
0

>  <SCORE.INTRA.REPUL>
0

>  <SCORE.INTRA.REPUL.0>
0

>  <SCORE.INTRA.SOLV>
3.86937

>  <SCORE.INTRA.SOLV.lig_0>
-82.6983

>  <SCORE.INTRA.VDW>
-0.518572

>  <SCORE.INTRA.VDW.0>
-2.11466

>  <SCORE.INTRA.norm>
-0.0764543

>  <SCORE.RESTR>
1.7715

>  <SCORE.RESTR.CAVITY>
1.7715

>  <SCORE.RESTR.norm>
0.0681345

>  <SCORE.SYSTEM>
0

>  <SCORE.SYSTEM.CONST>
0

>  <SCORE.SYSTEM.DIHEDRAL>
0

>  <SCORE.SYSTEM.SOLV>
0

>  <SCORE.SYSTEM.norm>
0

>  <SCORE.heavy>
26

>  <SCORE.norm>
-0.556175

>  <RMSD>
2.669

$$$$
ligand
 OpenBabel11021811423D
libRbt.so/2013.1/901 2013/11/27
 26 27  0  0  0  0  0  0  0  0999 V2000
    4.4897  -17.0186  -88.6107 C   0  0  0  0  0  0  0  0  0  0  0  0
    1.2068  -19.3656  -93.1080 C   0  0  0  0  0  0  0  0  0  0  0  0
    1.1453  -16.8678  -98.9689 P   0  0  2  0  0  0  0  0  0  0  0  0
    1.2176  -14.2566  -99.8892 P   0  0  2  0  0  0  0  0  0  0  0  0
   -0.6329  -17.8382  -91.0504 C   0  0  0  0  0  0  0  0  0  0  0  0
    1.6243  -16.8096  -90.9642 C   0  0  0  0  0  0  0  0  0  0  0  0
    0.7049  -17.6749  -90.3854 C   0  0  0  0  0  0  0  0  0  0  0  0
    1.0397  -18.3116  -89.1867 C   0  0  0  0  0  0  0  0  0  0  0  0
    0.2354  -19.1509  -88.5337 N   0  0  0  0  0  0  0  0  0  0  0  0
    2.2707  -18.0780  -88.6304 N   0  0  0  0  0  0  0  0  0  0  0  0
    3.1622  -17.2362  -89.2336 C   0  0  0  0  0  0  0  0  0  0  0  0
    2.8588  -16.5928  -90.3906 N   0  0  0  0  0  0  0  0  0  0  0  0
    1.5639  -17.5464 -100.2583 O   0  5  0  0  0  0  0  0  0  0  0  0
    1.2015  -14.7994 -101.3005 O   0  0  0  0  0  0  0  0  0  0  0  0
   -1.2098  -16.7705  -94.7781 S   0  0  0  0  0  0  0  0  0  0  0  0
   -1.4243  -16.8007  -93.1628 C   0  0  0  0  0  0  0  0  0  0  0  0
   -0.3778  -16.9530  -98.9146 O   0  0  0  0  0  0  0  0  0  0  0  0
    2.1238  -13.0491  -99.7615 O   0  5  0  0  0  0  0  0  0  0  0  0
   -0.6180  -17.6967  -92.4867 N   0  0  0  0  0  0  0  0  0  0  0  0
    1.8214  -15.4019  -98.9593 O   0  0  0  0  0  0  0  0  0  0  0  0
   -0.2033  -13.9009  -99.5015 O   0  0  0  0  0  0  0  0  0  0  0  0
    0.1829  -18.3410  -93.3972 C   0  0  1  0  0  0  0  0  0  0  0  0
   -0.0710  -17.8877  -94.7013 C   0  0  2  0  0  0  0  0  0  0  0  0
    0.4888  -18.2017  -96.0667 C   0  0  0  0  0  0  0  0  0  0  0  0
    1.7457  -17.3746  -96.3571 C   0  0  0  0  0  0  0  0  0  0  0  0
    2.0650  -17.4688  -97.7399 O   0  0  0  0  0  0  0  0  0  0  0  0
  1 11  1  0  0  0  0
  3 13  1  6  0  0  0
  3 17  2  0  0  0  0
  3 20  1  0  0  0  0
  3 26  1  0  0  0  0
  4 14  1  6  0  0  0
  4 18  1  0  0  0  0
  4 21  2  0  0  0  0
  4 20  1  0  0  0  0
  5 19  1  0  0  0  0
  5  7  1  0  0  0  0
  6  7  2  0  0  0  0
  6 12  1  0  0  0  0
  7  8  1  0  0  0  0
  8  9  1  0  0  0  0
  8 10  2  0  0  0  0
 10 11  1  0  0  0  0
 11 12  2  0  0  0  0
 15 23  1  0  0  0  0
 15 16  1  0  0  0  0
 16 19  1  0  0  0  0
 19 22  1  0  0  0  0
 22  2  1  1  0  0  0
 22 23  1  0  0  0  0
 23 24  1  1  0  0  0
 24 25  1  0  0  0  0
 25 26  1  0  0  0  0
M  CHG  2  13  -1  18  -1
M  END
>  <CHROM.1>
75.03333995,-124.99194035,31.56672536,-54.99342973,94.29425582,-166.99645586
66.22677072,-161.63579856,0.96302745,-16.79262603,-95.13596167,-1.52773325
-0.52067564,-1.30049870

>  <Name>
ligand

>  <RI>
0

>  <Rbt.Current_Directory>
/home/itssahil/PROJECTS/Mol_Feturizer/New_Systems/rnas/2CKY

>  <Rbt.Executable>
rbdock ($Id: //depot/dev/client3/rdock/2013.1/src/exe/rbdock.cxx#4 $)

>  <Rbt.Library>
libRbt.so (2013.1, Build901 2013/11/27)

>  <Rbt.Parameter_File>
/export/apps/rDock/src/rDock_2013.1_src/data/scripts/dock_solv.prm

>  <Rbt.Receptor>
prm/pocket_docking_3.prm

>  <SCORE>
-17.1059

>  <SCORE.INTER>
-11.041

>  <SCORE.INTER.CONST>
1

>  <SCORE.INTER.POLAR>
0

>  <SCORE.INTER.ROT>
8

>  <SCORE.INTER.SOLV>
13.3607

>  <SCORE.INTER.VDW>
-20.7476

>  <SCORE.INTER.norm>
-0.424653

>  <SCORE.INTRA>
-6.06493

>  <SCORE.INTRA.DIHEDRAL>
-9.95516

>  <SCORE.INTRA.DIHEDRAL.0>
16.4846

>  <SCORE.INTRA.POLAR>
0

>  <SCORE.INTRA.POLAR.0>
0

>  <SCORE.INTRA.REPUL>
0

>  <SCORE.INTRA.REPUL.0>
0

>  <SCORE.INTRA.SOLV>
0.906592

>  <SCORE.INTRA.SOLV.lig_0>
-82.6983

>  <SCORE.INTRA.VDW>
-1.54065

>  <SCORE.INTRA.VDW.0>
-2.11466

>  <SCORE.INTRA.norm>
-0.233267

>  <SCORE.RESTR>
0

>  <SCORE.RESTR.CAVITY>
0

>  <SCORE.RESTR.norm>
0

>  <SCORE.SYSTEM>
0

>  <SCORE.SYSTEM.CONST>
0

>  <SCORE.SYSTEM.DIHEDRAL>
0

>  <SCORE.SYSTEM.SOLV>
0

>  <SCORE.SYSTEM.norm>
0

>  <SCORE.heavy>
26

>  <SCORE.norm>
-0.65792

>  <RMSD>
2.683

$$$$
ligand
 OpenBabel11021811423D
libRbt.so/2013.1/901 2013/11/27
 26 27  0  0  0  0  0  0  0  0999 V2000
    0.4894  -18.7670  -86.3384 C   0  0  0  0  0  0  0  0  0  0  0  0
    2.3100  -15.3211  -93.6620 C   0  0  0  0  0  0  0  0  0  0  0  0
    3.8539  -15.7142  -97.9075 P   0  0  2  0  0  0  0  0  0  0  0  0
    1.9303  -14.2581  -99.2678 P   0  0  2  0  0  0  0  0  0  0  0  0
    3.1408  -16.9252  -91.0759 C   0  0  0  0  0  0  0  0  0  0  0  0
    1.1433  -17.7365  -89.8461 C   0  0  0  0  0  0  0  0  0  0  0  0
    2.4849  -17.3798  -89.8023 C   0  0  0  0  0  0  0  0  0  0  0  0
    3.1784  -17.5098  -88.5955 C   0  0  0  0  0  0  0  0  0  0  0  0
    4.4682  -17.2115  -88.4364 N   0  0  0  0  0  0  0  0  0  0  0  0
    2.5094  -17.9659  -87.4893 N   0  0  0  0  0  0  0  0  0  0  0  0
    1.1838  -18.2906  -87.5584 C   0  0  0  0  0  0  0  0  0  0  0  0
    0.4883  -18.1882  -88.7205 N   0  0  0  0  0  0  0  0  0  0  0  0
    5.0895  -15.4244  -97.0784 O   0  5  0  0  0  0  0  0  0  0  0  0
    0.8285  -15.0085  -98.5540 O   0  0  0  0  0  0  0  0  0  0  0  0
    1.5289  -19.1566  -93.8671 S   0  0  0  0  0  0  0  0  0  0  0  0
    2.2305  -18.7871  -92.4433 C   0  0  0  0  0  0  0  0  0  0  0  0
    4.3010  -16.6438  -99.0326 O   0  0  0  0  0  0  0  0  0  0  0  0
    2.3210  -14.9340 -100.5663 O   0  5  0  0  0  0  0  0  0  0  0  0
    2.5517  -17.4523  -92.2836 N   0  0  0  0  0  0  0  0  0  0  0  0
    3.2070  -14.2920  -98.3138 O   0  0  0  0  0  0  0  0  0  0  0  0
    1.4515  -12.8438  -99.5251 O   0  0  0  0  0  0  0  0  0  0  0  0
    2.1709  -16.7704  -93.4129 C   0  0  1  0  0  0  0  0  0  0  0  0
    1.5860  -17.6356  -94.3508 C   0  0  2  0  0  0  0  0  0  0  0  0
    0.9816  -17.4684  -95.7231 C   0  0  0  0  0  0  0  0  0  0  0  0
    2.0622  -17.4529  -96.8095 C   0  0  0  0  0  0  0  0  0  0  0  0
    2.6333  -16.1527  -96.8901 O   0  0  0  0  0  0  0  0  0  0  0  0
  1 11  1  0  0  0  0
  3 13  1  1  0  0  0
  3 17  2  0  0  0  0
  3 20  1  0  0  0  0
  3 26  1  0  0  0  0
  4 14  1  1  0  0  0
  4 18  1  0  0  0  0
  4 21  2  0  0  0  0
  4 20  1  0  0  0  0
  5 19  1  0  0  0  0
  5  7  1  0  0  0  0
  6  7  2  0  0  0  0
  6 12  1  0  0  0  0
  7  8  1  0  0  0  0
  8  9  1  0  0  0  0
  8 10  2  0  0  0  0
 10 11  1  0  0  0  0
 11 12  2  0  0  0  0
 15 23  1  0  0  0  0
 15 16  1  0  0  0  0
 16 19  1  0  0  0  0
 19 22  1  0  0  0  0
 22  2  1  1  0  0  0
 22 23  1  0  0  0  0
 23 24  1  1  0  0  0
 24 25  1  0  0  0  0
 25 26  1  0  0  0  0
M  CHG  2  13  -1  18  -1
M  END
>  <CHROM.1>
176.45972835,-46.45209518,-26.91108843,60.83448275,-97.71367144,-81.56122328
178.58672658,-111.84658728,2.34907108,-16.61560030,-94.38813708,1.64567192
0.51507750,1.83038113

>  <Name>
ligand

>  <RI>
0

>  <Rbt.Current_Directory>
/home/itssahil/PROJECTS/Mol_Feturizer/New_Systems/rnas/2CKY

>  <Rbt.Executable>
rbdock ($Id: //depot/dev/client3/rdock/2013.1/src/exe/rbdock.cxx#4 $)

>  <Rbt.Library>
libRbt.so (2013.1, Build901 2013/11/27)

>  <Rbt.Parameter_File>
/export/apps/rDock/src/rDock_2013.1_src/data/scripts/dock_solv.prm

>  <Rbt.Receptor>
prm/pocket_docking_3.prm

>  <SCORE>
-19.9921

>  <SCORE.INTER>
-14.047

>  <SCORE.INTER.CONST>
1

>  <SCORE.INTER.POLAR>
0

>  <SCORE.INTER.ROT>
8

>  <SCORE.INTER.SOLV>
20.5307

>  <SCORE.INTER.VDW>
-25.1415

>  <SCORE.INTER.norm>
-0.540268

>  <SCORE.INTRA>
-5.94571

>  <SCORE.INTRA.DIHEDRAL>
-7.72941

>  <SCORE.INTRA.DIHEDRAL.0>
16.4846

>  <SCORE.INTRA.POLAR>
0

>  <SCORE.INTRA.POLAR.0>
0

>  <SCORE.INTRA.REPUL>
0

>  <SCORE.INTRA.REPUL.0>
0

>  <SCORE.INTRA.SOLV>
-0.605761

>  <SCORE.INTRA.SOLV.lig_0>
-82.6983

>  <SCORE.INTRA.VDW>
-1.77812

>  <SCORE.INTRA.VDW.0>
-2.11466

>  <SCORE.INTRA.norm>
-0.228681

>  <SCORE.RESTR>
0.000563158

>  <SCORE.RESTR.CAVITY>
0.000563158

>  <SCORE.RESTR.norm>
2.16599e-05

>  <SCORE.SYSTEM>
0

>  <SCORE.SYSTEM.CONST>
0

>  <SCORE.SYSTEM.DIHEDRAL>
0

>  <SCORE.SYSTEM.SOLV>
0

>  <SCORE.SYSTEM.norm>
0

>  <SCORE.heavy>
26

>  <SCORE.norm>
-0.768927

>  <RMSD>
2.721

$$$$
ligand
 OpenBabel11021811423D
libRbt.so/2013.1/901 2013/11/27
 26 27  0  0  0  0  0  0  0  0999 V2000
    0.1060  -18.9411  -86.1257 C   0  0  0  0  0  0  0  0  0  0  0  0
    3.4987  -16.4848  -93.9128 C   0  0  0  0  0  0  0  0  0  0  0  0
    3.5299  -13.6850  -97.1702 P   0  0  2  0  0  0  0  0  0  0  0  0
    5.0083  -15.7773  -98.2223 P   0  0  2  0  0  0  0  0  0  0  0  0
    2.5316  -17.7136  -91.1730 C   0  0  0  0  0  0  0  0  0  0  0  0
    0.7236  -18.6878  -89.7792 C   0  0  0  0  0  0  0  0  0  0  0  0
    1.9241  -17.9908  -89.8266 C   0  0  0  0  0  0  0  0  0  0  0  0
    2.5405  -17.6266  -88.6260 C   0  0  0  0  0  0  0  0  0  0  0  0
    3.6976  -16.9689  -88.5469 N   0  0  0  0  0  0  0  0  0  0  0  0
    1.9326  -17.9507  -87.4407 N   0  0  0  0  0  0  0  0  0  0  0  0
    0.7414  -18.6200  -87.4260 C   0  0  0  0  0  0  0  0  0  0  0  0
    0.1268  -18.9992  -88.5763 N   0  0  0  0  0  0  0  0  0  0  0  0
    3.7773  -12.5904  -98.1894 O   0  5  0  0  0  0  0  0  0  0  0  0
    5.9613  -14.6739  -98.6233 O   0  0  0  0  0  0  0  0  0  0  0  0
    0.5491  -14.5084  -92.2524 S   0  0  0  0  0  0  0  0  0  0  0  0
    0.9652  -15.7945  -91.3419 C   0  0  0  0  0  0  0  0  0  0  0  0
    4.5289  -13.4519  -96.0399 O   0  0  0  0  0  0  0  0  0  0  0  0
    4.8177  -16.7876  -99.3353 O   0  5  0  0  0  0  0  0  0  0  0  0
    1.9954  -16.5598  -91.8548 N   0  0  0  0  0  0  0  0  0  0  0  0
    3.5931  -15.0932  -97.9568 O   0  0  0  0  0  0  0  0  0  0  0  0
    5.5560  -16.4491  -96.9796 O   0  0  0  0  0  0  0  0  0  0  0  0
    2.4102  -16.0018  -93.0389 C   0  0  1  0  0  0  0  0  0  0  0  0
    1.6660  -14.8507  -93.3415 C   0  0  2  0  0  0  0  0  0  0  0  0
    1.6747  -13.8397  -94.4615 C   0  0  0  0  0  0  0  0  0  0  0  0
    1.3124  -14.4896  -95.8011 C   0  0  0  0  0  0  0  0  0  0  0  0
    1.9122  -13.7547  -96.8609 O   0  0  0  0  0  0  0  0  0  0  0  0
  1 11  1  0  0  0  0
  3 13  1  6  0  0  0
  3 17  2  0  0  0  0
  3 20  1  0  0  0  0
  3 26  1  0  0  0  0
  4 14  1  6  0  0  0
  4 18  1  0  0  0  0
  4 21  2  0  0  0  0
  4 20  1  0  0  0  0
  5 19  1  0  0  0  0
  5  7  1  0  0  0  0
  6  7  2  0  0  0  0
  6 12  1  0  0  0  0
  7  8  1  0  0  0  0
  8  9  1  0  0  0  0
  8 10  2  0  0  0  0
 10 11  1  0  0  0  0
 11 12  2  0  0  0  0
 15 23  1  0  0  0  0
 15 16  1  0  0  0  0
 16 19  1  0  0  0  0
 19 22  1  0  0  0  0
 22  2  1  1  0  0  0
 22 23  1  0  0  0  0
 23 24  1  1  0  0  0
 24 25  1  0  0  0  0
 25 26  1  0  0  0  0
M  CHG  2  13  -1  18  -1
M  END
>  <CHROM.1>
83.64620468,-2.52776861,82.63858452,-41.44032926,-116.62360736,-152.72339355
68.92591307,-168.65498284,2.71689264,-15.83775408,-93.73965889,-1.98692759
0.75479270,-0.94179859

>  <Name>
ligand

>  <RI>
0

>  <Rbt.Current_Directory>
/home/itssahil/PROJECTS/Mol_Feturizer/New_Systems/rnas/2CKY

>  <Rbt.Executable>
rbdock ($Id: //depot/dev/client3/rdock/2013.1/src/exe/rbdock.cxx#4 $)

>  <Rbt.Library>
libRbt.so (2013.1, Build901 2013/11/27)

>  <Rbt.Parameter_File>
/export/apps/rDock/src/rDock_2013.1_src/data/scripts/dock_solv.prm

>  <Rbt.Receptor>
prm/pocket_docking_4.prm

>  <SCORE>
-19.2774

>  <SCORE.INTER>
-14.8239

>  <SCORE.INTER.CONST>
1

>  <SCORE.INTER.POLAR>
0

>  <SCORE.INTER.ROT>
8

>  <SCORE.INTER.SOLV>
23.079

>  <SCORE.INTER.VDW>
-26.5089

>  <SCORE.INTER.norm>
-0.570151

>  <SCORE.INTRA>
-4.45345

>  <SCORE.INTRA.DIHEDRAL>
-7.48818

>  <SCORE.INTRA.DIHEDRAL.0>
16.4846

>  <SCORE.INTRA.POLAR>
0

>  <SCORE.INTRA.POLAR.0>
0

>  <SCORE.INTRA.REPUL>
0

>  <SCORE.INTRA.REPUL.0>
0

>  <SCORE.INTRA.SOLV>
1.96572

>  <SCORE.INTRA.SOLV.lig_0>
-82.6983

>  <SCORE.INTRA.VDW>
-1.69222

>  <SCORE.INTRA.VDW.0>
-2.11466

>  <SCORE.INTRA.norm>
-0.171287

>  <SCORE.RESTR>
0

>  <SCORE.RESTR.CAVITY>
0

>  <SCORE.RESTR.norm>
0

>  <SCORE.SYSTEM>
0

>  <SCORE.SYSTEM.CONST>
0

>  <SCORE.SYSTEM.DIHEDRAL>
0

>  <SCORE.SYSTEM.SOLV>
0

>  <SCORE.SYSTEM.norm>
0

>  <SCORE.heavy>
26

>  <SCORE.norm>
-0.741437

>  <RMSD>
2.723

$$$$
ligand
 OpenBabel11021811423D
libRbt.so/2013.1/901 2013/11/27
 26 27  0  0  0  0  0  0  0  0999 V2000
    2.7191  -17.5946  -87.9826 C   0  0  0  0  0  0  0  0  0  0  0  0
   -0.2136  -19.2573  -95.9504 C   0  0  0  0  0  0  0  0  0  0  0  0
    2.1598  -15.5295  -98.0232 P   0  0  2  0  0  0  0  0  0  0  0  0
    1.0647  -15.4575 -100.5660 P   0  0  2  0  0  0  0  0  0  0  0  0
    0.1351  -19.2781  -92.8152 C   0  0  0  0  0  0  0  0  0  0  0  0
    0.2687  -19.0811  -90.3446 C   0  0  0  0  0  0  0  0  0  0  0  0
    0.8391  -18.7952  -91.5783 C   0  0  0  0  0  0  0  0  0  0  0  0
    2.0639  -18.1224  -91.6155 C   0  0  0  0  0  0  0  0  0  0  0  0
    2.7115  -17.8060  -92.7372 N   0  0  0  0  0  0  0  0  0  0  0  0
    2.6539  -17.7487  -90.4358 N   0  0  0  0  0  0  0  0  0  0  0  0
    2.0589  -18.0267  -89.2376 C   0  0  0  0  0  0  0  0  0  0  0  0
    0.8766  -18.6917  -89.1704 N   0  0  0  0  0  0  0  0  0  0  0  0
    2.6368  -14.5255  -96.9924 O   0  5  0  0  0  0  0  0  0  0  0  0
    2.3003  -16.1309 -101.1195 O   0  0  0  0  0  0  0  0  0  0  0  0
   -1.4939  -15.9923  -94.2001 S   0  0  0  0  0  0  0  0  0  0  0  0
   -0.9179  -17.0476  -93.0998 C   0  0  0  0  0  0  0  0  0  0  0  0
    3.3549  -16.4275  -98.3319 O   0  0  0  0  0  0  0  0  0  0  0  0
    0.5144  -14.4188 -101.5220 O   0  5  0  0  0  0  0  0  0  0  0  0
   -0.4504  -18.2372  -93.6258 N   0  0  0  0  0  0  0  0  0  0  0  0
    1.5090  -14.6921  -99.2402 O   0  0  0  0  0  0  0  0  0  0  0  0
    0.0280  -16.5260 -100.2841 O   0  0  0  0  0  0  0  0  0  0  0  0
   -0.5988  -18.2029  -94.9904 C   0  0  1  0  0  0  0  0  0  0  0  0
   -1.1679  -16.9885  -95.4051 C   0  0  2  0  0  0  0  0  0  0  0  0
   -1.5428  -16.3870  -96.7370 C   0  0  0  0  0  0  0  0  0  0  0  0
   -0.4529  -15.4376  -97.2459 C   0  0  0  0  0  0  0  0  0  0  0  0
    0.7354  -16.1758  -97.5027 O   0  0  0  0  0  0  0  0  0  0  0  0
  1 11  1  0  0  0  0
  3 13  1  1  0  0  0
  3 17  2  0  0  0  0
  3 20  1  0  0  0  0
  3 26  1  0  0  0  0
  4 14  1  6  0  0  0
  4 18  1  0  0  0  0
  4 21  2  0  0  0  0
  4 20  1  0  0  0  0
  5 19  1  0  0  0  0
  5  7  1  0  0  0  0
  6  7  2  0  0  0  0
  6 12  1  0  0  0  0
  7  8  1  0  0  0  0
  8  9  1  0  0  0  0
  8 10  2  0  0  0  0
 10 11  1  0  0  0  0
 11 12  2  0  0  0  0
 15 23  1  0  0  0  0
 15 16  1  0  0  0  0
 16 19  1  0  0  0  0
 19 22  1  0  0  0  0
 22  2  1  6  0  0  0
 22 23  1  0  0  0  0
 23 24  1  6  0  0  0
 24 25  1  0  0  0  0
 25 26  1  0  0  0  0
M  CHG  2  13  -1  18  -1
M  END
>  <CHROM.1>
172.91733529,-29.86032780,110.65031328,-59.20392626,81.77039535,64.66620078
-178.21321789,60.15757242,0.84280138,-16.77786140,-95.55659947,-1.57174722
-0.17688120,-1.28589424

>  <Name>
ligand

>  <RI>
0

>  <Rbt.Current_Directory>
/home/itssahil/PROJECTS/Mol_Feturizer/New_Systems/rnas/2CKY

>  <Rbt.Executable>
rbdock ($Id: //depot/dev/client3/rdock/2013.1/src/exe/rbdock.cxx#4 $)

>  <Rbt.Library>
libRbt.so (2013.1, Build901 2013/11/27)

>  <Rbt.Parameter_File>
/export/apps/rDock/src/rDock_2013.1_src/data/scripts/dock_solv.prm

>  <Rbt.Receptor>
prm/pocket_docking_3.prm

>  <SCORE>
-15.7889

>  <SCORE.INTER>
-9.09523

>  <SCORE.INTER.CONST>
1

>  <SCORE.INTER.POLAR>
0

>  <SCORE.INTER.ROT>
8

>  <SCORE.INTER.SOLV>
12.4863

>  <SCORE.INTER.VDW>
-19.1589

>  <SCORE.INTER.norm>
-0.349816

>  <SCORE.INTRA>
-6.69369

>  <SCORE.INTRA.DIHEDRAL>
-11.037

>  <SCORE.INTRA.DIHEDRAL.0>
16.4846

>  <SCORE.INTRA.POLAR>
0

>  <SCORE.INTRA.POLAR.0>
0

>  <SCORE.INTRA.REPUL>
0

>  <SCORE.INTRA.REPUL.0>
0

>  <SCORE.INTRA.SOLV>
1.37467

>  <SCORE.INTRA.SOLV.lig_0>
-82.6983

>  <SCORE.INTRA.VDW>
-1.86254

>  <SCORE.INTRA.VDW.0>
-2.11466

>  <SCORE.INTRA.norm>
-0.25745

>  <SCORE.RESTR>
0

>  <SCORE.RESTR.CAVITY>
0

>  <SCORE.RESTR.norm>
0

>  <SCORE.SYSTEM>
0

>  <SCORE.SYSTEM.CONST>
0

>  <SCORE.SYSTEM.DIHEDRAL>
0

>  <SCORE.SYSTEM.SOLV>
0

>  <SCORE.SYSTEM.norm>
0

>  <SCORE.heavy>
26

>  <SCORE.norm>
-0.607266

>  <RMSD>
2.725

$$$$
ligand
 OpenBabel11021811423D
libRbt.so/2013.1/901 2013/11/27
 26 27  0  0  0  0  0  0  0  0999 V2000
   -0.4224  -19.4699  -86.1066 C   0  0  0  0  0  0  0  0  0  0  0  0
    2.0057  -15.7325  -93.3373 C   0  0  0  0  0  0  0  0  0  0  0  0
    2.6928  -16.3173  -98.7422 P   0  0  2  0  0  0  0  0  0  0  0  0
    5.3027  -16.2127  -97.8213 P   0  0  2  0  0  0  0  0  0  0  0  0
    2.3681  -17.0942  -90.5150 C   0  0  0  0  0  0  0  0  0  0  0  0
    0.3367  -18.0430  -89.4504 C   0  0  0  0  0  0  0  0  0  0  0  0
    1.6746  -17.6925  -89.3234 C   0  0  0  0  0  0  0  0  0  0  0  0
    2.3305  -17.9595  -88.1181 C   0  0  0  0  0  0  0  0  0  0  0  0
    3.6132  -17.6804  -87.8850 N   0  0  0  0  0  0  0  0  0  0  0  0
    1.6291  -18.5402  -87.0933 N   0  0  0  0  0  0  0  0  0  0  0  0
    0.3079  -18.8561  -87.2412 C   0  0  0  0  0  0  0  0  0  0  0  0
   -0.3512  -18.6216  -88.4054 N   0  0  0  0  0  0  0  0  0  0  0  0
    2.1384  -16.6985 -100.1007 O   0  5  0  0  0  0  0  0  0  0  0  0
    5.4073  -14.8308  -98.4262 O   0  0  0  0  0  0  0  0  0  0  0  0
    1.5304  -19.6228  -93.3913 S   0  0  0  0  0  0  0  0  0  0  0  0
    1.8888  -19.1071  -91.8873 C   0  0  0  0  0  0  0  0  0  0  0  0
    2.5876  -14.7974  -98.6475 O   0  0  0  0  0  0  0  0  0  0  0  0
    6.5838  -17.0022  -97.9977 O   0  5  0  0  0  0  0  0  0  0  0  0
    2.0836  -17.7437  -91.7722 N   0  0  0  0  0  0  0  0  0  0  0  0
    4.1585  -16.9828  -98.6206 O   0  0  0  0  0  0  0  0  0  0  0  0
    4.9660  -16.0631  -96.3516 O   0  0  0  0  0  0  0  0  0  0  0  0
    1.9089  -17.1688  -93.0069 C   0  0  1  0  0  0  0  0  0  0  0  0
    1.5924  -18.1367  -93.9731 C   0  0  2  0  0  0  0  0  0  0  0  0
    1.2839  -18.1075  -95.4498 C   0  0  0  0  0  0  0  0  0  0  0  0
    2.3248  -17.2882  -96.2201 C   0  0  0  0  0  0  0  0  0  0  0  0
    1.9919  -17.2807  -97.6029 O   0  0  0  0  0  0  0  0  0  0  0  0
  1 11  1  0  0  0  0
  3 13  1  6  0  0  0
  3 17  2  0  0  0  0
  3 20  1  0  0  0  0
  3 26  1  0  0  0  0
  4 14  1  6  0  0  0
  4 18  1  0  0  0  0
  4 21  2  0  0  0  0
  4 20  1  0  0  0  0
  5 19  1  0  0  0  0
  5  7  1  0  0  0  0
  6  7  2  0  0  0  0
  6 12  1  0  0  0  0
  7  8  1  0  0  0  0
  8  9  1  0  0  0  0
  8 10  2  0  0  0  0
 10 11  1  0  0  0  0
 11 12  2  0  0  0  0
 15 23  1  0  0  0  0
 15 16  1  0  0  0  0
 16 19  1  0  0  0  0
 19 22  1  0  0  0  0
 22  2  1  1  0  0  0
 22 23  1  0  0  0  0
 23 24  1  1  0  0  0
 24 25  1  0  0  0  0
 25 26  1  0  0  0  0
M  CHG  2  13  -1  18  -1
M  END
>  <CHROM.1>
145.75934622,-35.38559813,-43.31953797,-54.30232627,-131.45234596,-179.66666354
169.09460697,175.36315616,2.55335796,-17.36318497,-94.00814125,1.86216318
0.40877855,1.67127374

>  <Name>
ligand

>  <RI>
0

>  <Rbt.Current_Directory>
/home/itssahil/PROJECTS/Mol_Feturizer/New_Systems/rnas/2CKY

>  <Rbt.Executable>
rbdock ($Id: //depot/dev/client3/rdock/2013.1/src/exe/rbdock.cxx#4 $)

>  <Rbt.Library>
libRbt.so (2013.1, Build901 2013/11/27)

>  <Rbt.Parameter_File>
/export/apps/rDock/src/rDock_2013.1_src/data/scripts/dock_solv.prm

>  <Rbt.Receptor>
prm/pocket_docking_5.prm

>  <SCORE>
-25.1165

>  <SCORE.INTER>
-19.8745

>  <SCORE.INTER.CONST>
1

>  <SCORE.INTER.POLAR>
0

>  <SCORE.INTER.ROT>
8

>  <SCORE.INTER.SOLV>
27.1752

>  <SCORE.INTER.VDW>
-31.2414

>  <SCORE.INTER.norm>
-0.764402

>  <SCORE.INTRA>
-5.24207

>  <SCORE.INTRA.DIHEDRAL>
-9.45478

>  <SCORE.INTRA.DIHEDRAL.0>
16.4846

>  <SCORE.INTRA.POLAR>
0

>  <SCORE.INTRA.POLAR.0>
0

>  <SCORE.INTRA.REPUL>
0

>  <SCORE.INTRA.REPUL.0>
0

>  <SCORE.INTRA.SOLV>
0.6913

>  <SCORE.INTRA.SOLV.lig_0>
-82.6983

>  <SCORE.INTRA.VDW>
-0.860325

>  <SCORE.INTRA.VDW.0>
-2.11466

>  <SCORE.INTRA.norm>
-0.201618

>  <SCORE.RESTR>
0

>  <SCORE.RESTR.CAVITY>
0

>  <SCORE.RESTR.norm>
0

>  <SCORE.SYSTEM>
0

>  <SCORE.SYSTEM.CONST>
0

>  <SCORE.SYSTEM.DIHEDRAL>
0

>  <SCORE.SYSTEM.SOLV>
0

>  <SCORE.SYSTEM.norm>
0

>  <SCORE.heavy>
26

>  <SCORE.norm>
-0.96602

>  <RMSD>
2.742

$$$$
ligand
 OpenBabel11021811423D
libRbt.so/2013.1/901 2013/11/27
 26 27  0  0  0  0  0  0  0  0999 V2000
    0.3043  -18.9835  -86.0395 C   0  0  0  0  0  0  0  0  0  0  0  0
   -0.2241  -15.9830  -92.7123 C   0  0  0  0  0  0  0  0  0  0  0  0
    0.8546  -15.4412  -97.7007 P   0  0  2  0  0  0  0  0  0  0  0  0
   -0.6336  -14.7165  -99.9211 P   0  0  2  0  0  0  0  0  0  0  0  0
    2.2519  -17.0431  -91.0701 C   0  0  0  0  0  0  0  0  0  0  0  0
    2.4919  -17.4840  -88.6394 C   0  0  0  0  0  0  0  0  0  0  0  0
    1.7061  -17.5875  -89.7799 C   0  0  0  0  0  0  0  0  0  0  0  0
    0.4269  -18.1404  -89.6699 C   0  0  0  0  0  0  0  0  0  0  0  0
   -0.4201  -18.2787  -90.6903 N   0  0  0  0  0  0  0  0  0  0  0  0
   -0.0047  -18.5808  -88.4455 N   0  0  0  0  0  0  0  0  0  0  0  0
    0.7989  -18.4837  -87.3445 C   0  0  0  0  0  0  0  0  0  0  0  0
    2.0403  -17.9379  -87.4187 N   0  0  0  0  0  0  0  0  0  0  0  0
    0.5027  -14.1308  -97.0245 O   0  5  0  0  0  0  0  0  0  0  0  0
    0.5071  -14.8030 -100.9100 O   0  0  0  0  0  0  0  0  0  0  0  0
    1.3230  -19.2855  -94.1486 S   0  0  0  0  0  0  0  0  0  0  0  0
    2.1483  -18.7867  -92.8348 C   0  0  0  0  0  0  0  0  0  0  0  0
    2.2750  -15.2795  -98.2356 O   0  0  0  0  0  0  0  0  0  0  0  0
   -0.7198  -13.3461  -99.2806 O   0  5  0  0  0  0  0  0  0  0  0  0
    1.6786  -17.6195  -92.2628 N   0  0  0  0  0  0  0  0  0  0  0  0
   -0.3203  -15.7627  -98.7600 O   0  0  0  0  0  0  0  0  0  0  0  0
   -1.9200  -15.0466 -100.6506 O   0  0  0  0  0  0  0  0  0  0  0  0
    0.5947  -17.1820  -92.9834 C   0  0  1  0  0  0  0  0  0  0  0  0
    0.3169  -18.0489  -94.0520 C   0  0  2  0  0  0  0  0  0  0  0  0
   -0.7255  -18.0973  -95.1418 C   0  0  0  0  0  0  0  0  0  0  0  0
   -0.7419  -16.7984  -95.9548 C   0  0  0  0  0  0  0  0  0  0  0  0
    0.4784  -16.6757  -96.6751 O   0  0  0  0  0  0  0  0  0  0  0  0
  1 11  1  0  0  0  0
  3 13  1  1  0  0  0
  3 17  2  0  0  0  0
  3 20  1  0  0  0  0
  3 26  1  0  0  0  0
  4 14  1  6  0  0  0
  4 18  1  0  0  0  0
  4 21  2  0  0  0  0
  4 20  1  0  0  0  0
  5 19  1  0  0  0  0
  5  7  1  0  0  0  0
  6  7  2  0  0  0  0
  6 12  1  0  0  0  0
  7  8  1  0  0  0  0
  8  9  1  0  0  0  0
  8 10  2  0  0  0  0
 10 11  1  0  0  0  0
 11 12  2  0  0  0  0
 15 23  1  0  0  0  0
 15 16  1  0  0  0  0
 16 19  1  0  0  0  0
 19 22  1  0  0  0  0
 22  2  1  1  0  0  0
 22 23  1  0  0  0  0
 23 24  1  1  0  0  0
 24 25  1  0  0  0  0
 25 26  1  0  0  0  0
M  CHG  2  13  -1  18  -1
M  END
>  <CHROM.1>
58.65149434,-85.78268483,156.68510388,72.48625845,-125.04098771,66.48208691
178.47568652,46.61371720,0.53162046,-16.76371924,-94.45278845,1.17833277
-1.27811949,1.50314976

>  <Name>
ligand

>  <RI>
0

>  <Rbt.Current_Directory>
/home/itssahil/PROJECTS/Mol_Feturizer/New_Systems/rnas/2CKY

>  <Rbt.Executable>
rbdock ($Id: //depot/dev/client3/rdock/2013.1/src/exe/rbdock.cxx#4 $)

>  <Rbt.Library>
libRbt.so (2013.1, Build901 2013/11/27)

>  <Rbt.Parameter_File>
/export/apps/rDock/src/rDock_2013.1_src/data/scripts/dock_solv.prm

>  <Rbt.Receptor>
prm/pocket_docking_2.prm

>  <SCORE>
-18.0052

>  <SCORE.INTER>
-13.9819

>  <SCORE.INTER.CONST>
1

>  <SCORE.INTER.POLAR>
0

>  <SCORE.INTER.ROT>
8

>  <SCORE.INTER.SOLV>
12.9773

>  <SCORE.INTER.VDW>
-22.5804

>  <SCORE.INTER.norm>
-0.537764

>  <SCORE.INTRA>
-4.3096

>  <SCORE.INTRA.DIHEDRAL>
-11.5049

>  <SCORE.INTRA.DIHEDRAL.0>
16.4846

>  <SCORE.INTRA.POLAR>
0

>  <SCORE.INTRA.POLAR.0>
0

>  <SCORE.INTRA.REPUL>
0

>  <SCORE.INTRA.REPUL.0>
0

>  <SCORE.INTRA.SOLV>
5.48953

>  <SCORE.INTRA.SOLV.lig_0>
-82.6983

>  <SCORE.INTRA.VDW>
-1.30191

>  <SCORE.INTRA.VDW.0>
-2.11466

>  <SCORE.INTRA.norm>
-0.165754

>  <SCORE.RESTR>
0.286302

>  <SCORE.RESTR.CAVITY>
0.286302

>  <SCORE.RESTR.norm>
0.0110116

>  <SCORE.SYSTEM>
0

>  <SCORE.SYSTEM.CONST>
0

>  <SCORE.SYSTEM.DIHEDRAL>
0

>  <SCORE.SYSTEM.SOLV>
0

>  <SCORE.SYSTEM.norm>
0

>  <SCORE.heavy>
26

>  <SCORE.norm>
-0.692507

>  <RMSD>
2.746

$$$$
ligand
 OpenBabel11021811423D
libRbt.so/2013.1/901 2013/11/27
 26 27  0  0  0  0  0  0  0  0999 V2000
   -0.1634  -19.1426  -85.9639 C   0  0  0  0  0  0  0  0  0  0  0  0
    0.5911  -15.6582  -92.6750 C   0  0  0  0  0  0  0  0  0  0  0  0
    2.2039  -15.0220  -97.1559 P   0  0  2  0  0  0  0  0  0  0  0  0
    4.8079  -15.6725  -97.8387 P   0  0  2  0  0  0  0  0  0  0  0  0
    2.4614  -17.2524  -90.6970 C   0  0  0  0  0  0  0  0  0  0  0  0
    2.3869  -17.7249  -88.2616 C   0  0  0  0  0  0  0  0  0  0  0  0
    1.7402  -17.7816  -89.4894 C   0  0  0  0  0  0  0  0  0  0  0  0
    0.4332  -18.2750  -89.5412 C   0  0  0  0  0  0  0  0  0  0  0  0
   -0.2903  -18.3648  -90.6575 N   0  0  0  0  0  0  0  0  0  0  0  0
   -0.1621  -18.7053  -88.3836 N   0  0  0  0  0  0  0  0  0  0  0  0
    0.5067  -18.6553  -87.1931 C   0  0  0  0  0  0  0  0  0  0  0  0
    1.7716  -18.1675  -87.1102 N   0  0  0  0  0  0  0  0  0  0  0  0
    1.7213  -15.2666  -98.5720 O   0  5  0  0  0  0  0  0  0  0  0  0
    5.8786  -16.6271  -97.3599 O   0  0  0  0  0  0  0  0  0  0  0  0
    1.4438  -19.2856  -93.8906 S   0  0  0  0  0  0  0  0  0  0  0  0
    2.1732  -18.9685  -92.4681 C   0  0  0  0  0  0  0  0  0  0  0  0
    2.3465  -13.5096  -97.0069 O   0  0  0  0  0  0  0  0  0  0  0  0
    5.2140  -14.2265  -97.6395 O   0  5  0  0  0  0  0  0  0  0  0  0
    1.9365  -17.7038  -91.9636 N   0  0  0  0  0  0  0  0  0  0  0  0
    3.5197  -15.9309  -96.9360 O   0  0  0  0  0  0  0  0  0  0  0  0
    4.5407  -15.9551  -99.3031 O   0  0  0  0  0  0  0  0  0  0  0  0
    1.1113  -17.0317  -92.8313 C   0  0  1  0  0  0  0  0  0  0  0  0
    0.7785  -17.8343  -93.9338 C   0  0  2  0  0  0  0  0  0  0  0  0
   -0.0770  -17.6543  -95.1636 C   0  0  0  0  0  0  0  0  0  0  0  0
    0.7604  -17.1959  -96.3623 C   0  0  0  0  0  0  0  0  0  0  0  0
    1.2493  -15.8819  -96.1229 O   0  0  0  0  0  0  0  0  0  0  0  0
  1 11  1  0  0  0  0
  3 13  1  6  0  0  0
  3 17  2  0  0  0  0
  3 20  1  0  0  0  0
  3 26  1  0  0  0  0
  4 14  1  1  0  0  0
  4 18  1  0  0  0  0
  4 21  2  0  0  0  0
  4 20  1  0  0  0  0
  5 19  1  0  0  0  0
  5  7  1  0  0  0  0
  6  7  2  0  0  0  0
  6 12  1  0  0  0  0
  7  8  1  0  0  0  0
  8  9  1  0  0  0  0
  8 10  2  0  0  0  0
 10 11  1  0  0  0  0
 11 12  2  0  0  0  0
 15 23  1  0  0  0  0
 15 16  1  0  0  0  0
 16 19  1  0  0  0  0
 19 22  1  0  0  0  0
 22  2  1  1  0  0  0
 22 23  1  0  0  0  0
 23 24  1  1  0  0  0
 24 25  1  0  0  0  0
 25 26  1  0  0  0  0
M  CHG  2  13  -1  18  -1
M  END
>  <CHROM.1>
62.01430429,-76.66652545,161.68785923,177.58837716,-85.50886776,-67.04217333
179.43985974,39.56098752,2.05802399,-16.92663433,-93.83839487,-1.86170276
-0.23167695,-1.32265487

>  <Name>
ligand

>  <RI>
0

>  <Rbt.Current_Directory>
/home/itssahil/PROJECTS/Mol_Feturizer/New_Systems/rnas/2CKY

>  <Rbt.Executable>
rbdock ($Id: //depot/dev/client3/rdock/2013.1/src/exe/rbdock.cxx#4 $)

>  <Rbt.Library>
libRbt.so (2013.1, Build901 2013/11/27)

>  <Rbt.Parameter_File>
/export/apps/rDock/src/rDock_2013.1_src/data/scripts/dock_solv.prm

>  <Rbt.Receptor>
prm/pocket_docking_4.prm

>  <SCORE>
-23.2328

>  <SCORE.INTER>
-18.9711

>  <SCORE.INTER.CONST>
1

>  <SCORE.INTER.POLAR>
0

>  <SCORE.INTER.ROT>
8

>  <SCORE.INTER.SOLV>
11.8303

>  <SCORE.INTER.VDW>
-25.5242

>  <SCORE.INTER.norm>
-0.72966

>  <SCORE.INTRA>
-4.28879

>  <SCORE.INTRA.DIHEDRAL>
-11.0392

>  <SCORE.INTRA.DIHEDRAL.0>
16.4846

>  <SCORE.INTRA.POLAR>
0

>  <SCORE.INTRA.POLAR.0>
0

>  <SCORE.INTRA.REPUL>
0

>  <SCORE.INTRA.REPUL.0>
0

>  <SCORE.INTRA.SOLV>
6.43327

>  <SCORE.INTRA.SOLV.lig_0>
-82.6983

>  <SCORE.INTRA.VDW>
-1.98582

>  <SCORE.INTRA.VDW.0>
-2.11466

>  <SCORE.INTRA.norm>
-0.164954

>  <SCORE.RESTR>
0.0270911

>  <SCORE.RESTR.CAVITY>
0.0270911

>  <SCORE.RESTR.norm>
0.00104197

>  <SCORE.SYSTEM>
0

>  <SCORE.SYSTEM.CONST>
0

>  <SCORE.SYSTEM.DIHEDRAL>
0

>  <SCORE.SYSTEM.SOLV>
0

>  <SCORE.SYSTEM.norm>
0

>  <SCORE.heavy>
26

>  <SCORE.norm>
-0.893571

>  <RMSD>
2.753

$$$$
ligand
 OpenBabel11021811423D
libRbt.so/2013.1/901 2013/11/27
 26 27  0  0  0  0  0  0  0  0999 V2000
   -0.5027  -19.3649  -86.0777 C   0  0  0  0  0  0  0  0  0  0  0  0
    2.3245  -15.5080  -92.9186 C   0  0  0  0  0  0  0  0  0  0  0  0
    1.2370  -16.4103  -98.4595 P   0  0  2  0  0  0  0  0  0  0  0  0
    0.1261  -14.4500 -100.0699 P   0  0  2  0  0  0  0  0  0  0  0  0
    2.6947  -17.3646  -90.3952 C   0  0  0  0  0  0  0  0  0  0  0  0
    2.3956  -18.1608  -88.0635 C   0  0  0  0  0  0  0  0  0  0  0  0
    1.8194  -17.9104  -89.3021 C   0  0  0  0  0  0  0  0  0  0  0  0
    0.4472  -18.1233  -89.4632 C   0  0  0  0  0  0  0  0  0  0  0  0
   -0.2167  -17.9060  -90.5989 N   0  0  0  0  0  0  0  0  0  0  0  0
   -0.2829  -18.5907  -88.4012 N   0  0  0  0  0  0  0  0  0  0  0  0
    0.3157  -18.8467  -87.1998 C   0  0  0  0  0  0  0  0  0  0  0  0
    1.6439  -18.6353  -87.0100 N   0  0  0  0  0  0  0  0  0  0  0  0
    2.0089  -17.0774  -99.5807 O   0  5  0  0  0  0  0  0  0  0  0  0
   -1.2283  -15.0636  -99.7946 O   0  0  0  0  0  0  0  0  0  0  0  0
    1.5737  -19.2904  -93.6206 S   0  0  0  0  0  0  0  0  0  0  0  0
    2.0234  -19.0707  -92.0696 C   0  0  0  0  0  0  0  0  0  0  0  0
   -0.0320  -17.2354  -98.2628 O   0  0  0  0  0  0  0  0  0  0  0  0
    0.7513  -15.0103 -101.3312 O   0  5  0  0  0  0  0  0  0  0  0  0
    2.3183  -17.7638  -91.7303 N   0  0  0  0  0  0  0  0  0  0  0  0
    1.0733  -14.8533  -98.8528 O   0  0  0  0  0  0  0  0  0  0  0  0
   -0.0469  -12.9489 -100.1813 O   0  0  0  0  0  0  0  0  0  0  0  0
    2.1388  -16.9711  -92.8370 C   0  0  1  0  0  0  0  0  0  0  0  0
    1.7190  -17.7321  -93.9393 C   0  0  2  0  0  0  0  0  0  0  0  0
    1.3584  -17.4244  -95.3717 C   0  0  0  0  0  0  0  0  0  0  0  0
    2.6043  -17.0967  -96.2015 C   0  0  0  0  0  0  0  0  0  0  0  0
    2.2689  -16.1430  -97.2020 O   0  0  0  0  0  0  0  0  0  0  0  0
  1 11  1  0  0  0  0
  3 13  1  6  0  0  0
  3 17  2  0  0  0  0
  3 20  1  0  0  0  0
  3 26  1  0  0  0  0
  4 14  1  1  0  0  0
  4 18  1  0  0  0  0
  4 21  2  0  0  0  0
  4 20  1  0  0  0  0
  5 19  1  0  0  0  0
  5  7  1  0  0  0  0
  6  7  2  0  0  0  0
  6 12  1  0  0  0  0
  7  8  1  0  0  0  0
  8  9  1  0  0  0  0
  8 10  2  0  0  0  0
 10 11  1  0  0  0  0
 11 12  2  0  0  0  0
 15 23  1  0  0  0  0
 15 16  1  0  0  0  0
 16 19  1  0  0  0  0
 19 22  1  0  0  0  0
 22  2  1  1  0  0  0
 22 23  1  0  0  0  0
 23 24  1  1  0  0  0
 24 25  1  0  0  0  0
 25 26  1  0  0  0  0
M  CHG  2  13  -1  18  -1
M  END
>  <CHROM.1>
69.17662381,-47.12795885,148.88026813,54.24454087,-107.27479747,-147.38206261
-65.33087197,-84.28836980,1.12155398,-16.98441946,-94.51618750,1.51974826
-0.69758277,1.82836278

>  <Name>
ligand

>  <RI>
0

>  <Rbt.Current_Directory>
/home/itssahil/PROJECTS/Mol_Feturizer/New_Systems/rnas/2CKY

>  <Rbt.Executable>
rbdock ($Id: //depot/dev/client3/rdock/2013.1/src/exe/rbdock.cxx#4 $)

>  <Rbt.Library>
libRbt.so (2013.1, Build901 2013/11/27)

>  <Rbt.Parameter_File>
/export/apps/rDock/src/rDock_2013.1_src/data/scripts/dock_solv.prm

>  <Rbt.Receptor>
prm/pocket_docking_3.prm

>  <SCORE>
-20.0734

>  <SCORE.INTER>
-16.8509

>  <SCORE.INTER.CONST>
1

>  <SCORE.INTER.POLAR>
0

>  <SCORE.INTER.ROT>
8

>  <SCORE.INTER.SOLV>
14.7885

>  <SCORE.INTER.VDW>
-25.0968

>  <SCORE.INTER.norm>
-0.648113

>  <SCORE.INTRA>
-3.22683

>  <SCORE.INTRA.DIHEDRAL>
-7.85835

>  <SCORE.INTRA.DIHEDRAL.0>
16.4846

>  <SCORE.INTRA.POLAR>
0

>  <SCORE.INTRA.POLAR.0>
0

>  <SCORE.INTRA.REPUL>
0

>  <SCORE.INTRA.REPUL.0>
0

>  <SCORE.INTRA.SOLV>
4.47154

>  <SCORE.INTRA.SOLV.lig_0>
-82.6983

>  <SCORE.INTRA.VDW>
-1.53342

>  <SCORE.INTRA.VDW.0>
-2.11466

>  <SCORE.INTRA.norm>
-0.124109

>  <SCORE.RESTR>
0.0043457

>  <SCORE.RESTR.CAVITY>
0.0043457

>  <SCORE.RESTR.norm>
0.000167142

>  <SCORE.SYSTEM>
0

>  <SCORE.SYSTEM.CONST>
0

>  <SCORE.SYSTEM.DIHEDRAL>
0

>  <SCORE.SYSTEM.SOLV>
0

>  <SCORE.SYSTEM.norm>
0

>  <SCORE.heavy>
26

>  <SCORE.norm>
-0.772055

>  <RMSD>
2.761

$$$$
ligand
 OpenBabel11021811423D
libRbt.so/2013.1/901 2013/11/27
 26 27  0  0  0  0  0  0  0  0999 V2000
    0.2890  -19.0669  -86.0763 C   0  0  0  0  0  0  0  0  0  0  0  0
    0.0758  -15.8053  -92.7574 C   0  0  0  0  0  0  0  0  0  0  0  0
    1.0319  -15.7750  -98.1574 P   0  0  2  0  0  0  0  0  0  0  0  0
   -0.6863  -14.6673 -100.0258 P   0  0  2  0  0  0  0  0  0  0  0  0
    2.3625  -17.1853  -91.0788 C   0  0  0  0  0  0  0  0  0  0  0  0
    2.5104  -17.5303  -88.6253 C   0  0  0  0  0  0  0  0  0  0  0  0
    1.7872  -17.7171  -89.7963 C   0  0  0  0  0  0  0  0  0  0  0  0
    0.5374  -18.3394  -89.7252 C   0  0  0  0  0  0  0  0  0  0  0  0
   -0.2506  -18.5606  -90.7778 N   0  0  0  0  0  0  0  0  0  0  0  0
    0.0733  -18.7632  -88.5068 N   0  0  0  0  0  0  0  0  0  0  0  0
    0.8164  -18.5830  -87.3744 C   0  0  0  0  0  0  0  0  0  0  0  0
    2.0273  -17.9688  -87.4111 N   0  0  0  0  0  0  0  0  0  0  0  0
    1.5428  -14.3720  -97.8954 O   0  5  0  0  0  0  0  0  0  0  0  0
    0.3298  -15.0497 -101.0784 O   0  0  0  0  0  0  0  0  0  0  0  0
    1.1814  -19.2916  -94.1670 S   0  0  0  0  0  0  0  0  0  0  0  0
    2.0484  -18.9046  -92.8423 C   0  0  0  0  0  0  0  0  0  0  0  0
    2.0992  -16.4696  -98.9991 O   0  0  0  0  0  0  0  0  0  0  0  0
   -0.4825  -13.2478  -99.5369 O   0  5  0  0  0  0  0  0  0  0  0  0
    1.7331  -17.6828  -92.2786 N   0  0  0  0  0  0  0  0  0  0  0  0
   -0.4504  -15.6350  -98.7812 O   0  0  0  0  0  0  0  0  0  0  0  0
   -2.0703  -14.8338 -100.6198 O   0  0  0  0  0  0  0  0  0  0  0  0
    0.7285  -17.1050  -93.0152 C   0  0  1  0  0  0  0  0  0  0  0  0
    0.3506  -17.9299  -94.0863 C   0  0  2  0  0  0  0  0  0  0  0  0
   -0.6735  -17.8404  -95.1907 C   0  0  0  0  0  0  0  0  0  0  0  0
   -0.0031  -17.7321  -96.5644 C   0  0  0  0  0  0  0  0  0  0  0  0
    0.5352  -16.4257  -96.7265 O   0  0  0  0  0  0  0  0  0  0  0  0
  1 11  1  0  0  0  0
  3 13  1  1  0  0  0
  3 17  2  0  0  0  0
  3 20  1  0  0  0  0
  3 26  1  0  0  0  0
  4 14  1  6  0  0  0
  4 18  1  0  0  0  0
  4 21  2  0  0  0  0
  4 20  1  0  0  0  0
  5 19  1  0  0  0  0
  5  7  1  0  0  0  0
  6  7  2  0  0  0  0
  6 12  1  0  0  0  0
  7  8  1  0  0  0  0
  8  9  1  0  0  0  0
  8 10  2  0  0  0  0
 10 11  1  0  0  0  0
 11 12  2  0  0  0  0
 15 23  1  0  0  0  0
 15 16  1  0  0  0  0
 16 19  1  0  0  0  0
 19 22  1  0  0  0  0
 22  2  1  1  0  0  0
 22 23  1  0  0  0  0
 23 24  1  1  0  0  0
 24 25  1  0  0  0  0
 25 26  1  0  0  0  0
M  CHG  2  13  -1  18  -1
M  END
>  <CHROM.1>
51.16413689,-81.96958276,165.91540472,52.08706671,-66.48404692,-74.15255083
-165.42368467,-179.75733820,0.61541237,-16.87725420,-94.61132794,1.32803319
-1.12275322,1.65242690

>  <Name>
ligand

>  <RI>
0

>  <Rbt.Current_Directory>
/home/itssahil/PROJECTS/Mol_Feturizer/New_Systems/rnas/2CKY

>  <Rbt.Executable>
rbdock ($Id: //depot/dev/client3/rdock/2013.1/src/exe/rbdock.cxx#4 $)

>  <Rbt.Library>
libRbt.so (2013.1, Build901 2013/11/27)

>  <Rbt.Parameter_File>
/export/apps/rDock/src/rDock_2013.1_src/data/scripts/dock_solv.prm

>  <Rbt.Receptor>
prm/pocket_docking_2.prm

>  <SCORE>
-18.0532

>  <SCORE.INTER>
-14.5786

>  <SCORE.INTER.CONST>
1

>  <SCORE.INTER.POLAR>
0

>  <SCORE.INTER.ROT>
8

>  <SCORE.INTER.SOLV>
13.0857

>  <SCORE.INTER.VDW>
-23.0143

>  <SCORE.INTER.norm>
-0.560714

>  <SCORE.INTRA>
-3.55274

>  <SCORE.INTRA.DIHEDRAL>
-9.35897

>  <SCORE.INTRA.DIHEDRAL.0>
16.4846

>  <SCORE.INTRA.POLAR>
0

>  <SCORE.INTRA.POLAR.0>
0

>  <SCORE.INTRA.REPUL>
0

>  <SCORE.INTRA.REPUL.0>
0

>  <SCORE.INTRA.SOLV>
4.73434

>  <SCORE.INTRA.SOLV.lig_0>
-82.6983

>  <SCORE.INTRA.VDW>
-1.24043

>  <SCORE.INTRA.VDW.0>
-2.11466

>  <SCORE.INTRA.norm>
-0.136644

>  <SCORE.RESTR>
0.0780637

>  <SCORE.RESTR.CAVITY>
0.0780637

>  <SCORE.RESTR.norm>
0.00300245

>  <SCORE.SYSTEM>
0

>  <SCORE.SYSTEM.CONST>
0

>  <SCORE.SYSTEM.DIHEDRAL>
0

>  <SCORE.SYSTEM.SOLV>
0

>  <SCORE.SYSTEM.norm>
0

>  <SCORE.heavy>
26

>  <SCORE.norm>
-0.694355

>  <RMSD>
2.768

$$$$
ligand
 OpenBabel11021811423D
libRbt.so/2013.1/901 2013/11/27
 26 27  0  0  0  0  0  0  0  0999 V2000
    3.9119  -17.1306  -88.8466 C   0  0  0  0  0  0  0  0  0  0  0  0
   -1.4687  -15.4122  -94.7047 C   0  0  0  0  0  0  0  0  0  0  0  0
   -0.0625  -15.2017 -100.0806 P   0  0  2  0  0  0  0  0  0  0  0  0
    2.4993  -14.1634 -100.2514 P   0  0  2  0  0  0  0  0  0  0  0  0
   -0.7444  -17.1747  -92.1907 C   0  0  0  0  0  0  0  0  0  0  0  0
    1.6675  -16.7551  -91.7817 C   0  0  0  0  0  0  0  0  0  0  0  0
    0.4522  -17.2045  -91.2818 C   0  0  0  0  0  0  0  0  0  0  0  0
    0.3813  -17.6116  -89.9463 C   0  0  0  0  0  0  0  0  0  0  0  0
   -0.7305  -18.0485  -89.3540 N   0  0  0  0  0  0  0  0  0  0  0  0
    1.5159  -17.5735  -89.1778 N   0  0  0  0  0  0  0  0  0  0  0  0
    2.7022  -17.1448  -89.7033 C   0  0  0  0  0  0  0  0  0  0  0  0
    2.7977  -16.7296  -90.9930 N   0  0  0  0  0  0  0  0  0  0  0  0
   -1.0516  -15.8641 -101.0193 O   0  5  0  0  0  0  0  0  0  0  0  0
    3.2992  -13.4166 -101.2951 O   0  0  0  0  0  0  0  0  0  0  0  0
    0.3364  -18.7734  -95.6031 S   0  0  0  0  0  0  0  0  0  0  0  0
    0.1596  -18.6280  -93.9895 C   0  0  0  0  0  0  0  0  0  0  0  0
   -0.8481  -14.1482  -99.3041 O   0  0  0  0  0  0  0  0  0  0  0  0
    3.2516  -15.3671  -99.7215 O   0  5  0  0  0  0  0  0  0  0  0  0
   -0.4615  -17.4646  -93.5761 N   0  0  0  0  0  0  0  0  0  0  0  0
    1.1868  -14.7066 -100.9749 O   0  0  0  0  0  0  0  0  0  0  0  0
    2.1711  -13.2019  -99.1274 O   0  0  0  0  0  0  0  0  0  0  0  0
   -0.7798  -16.7186  -94.6841 C   0  0  1  0  0  0  0  0  0  0  0  0
   -0.3788  -17.3690  -95.8616 C   0  0  2  0  0  0  0  0  0  0  0  0
   -0.4709  -17.0581  -97.3352 C   0  0  0  0  0  0  0  0  0  0  0  0
    0.8569  -16.5148  -97.8739 C   0  0  0  0  0  0  0  0  0  0  0  0
    0.7742  -16.3799  -99.2873 O   0  0  0  0  0  0  0  0  0  0  0  0
  1 11  1  0  0  0  0
  3 13  1  6  0  0  0
  3 17  2  0  0  0  0
  3 20  1  0  0  0  0
  3 26  1  0  0  0  0
  4 14  1  6  0  0  0
  4 18  1  0  0  0  0
  4 21  2  0  0  0  0
  4 20  1  0  0  0  0
  5 19  1  0  0  0  0
  5  7  1  0  0  0  0
  6  7  2  0  0  0  0
  6 12  1  0  0  0  0
  7  8  1  0  0  0  0
  8  9  1  0  0  0  0
  8 10  2  0  0  0  0
 10 11  1  0  0  0  0
 11 12  2  0  0  0  0
 15 23  1  0  0  0  0
 15 16  1  0  0  0  0
 16 19  1  0  0  0  0
 19 22  1  0  0  0  0
 22  2  1  6  0  0  0
 22 23  1  0  0  0  0
 23 24  1  6  0  0  0
 24 25  1  0  0  0  0
 25 26  1  0  0  0  0
M  CHG  2  13  -1  18  -1
M  END
>  <CHROM.1>
-170.88567549,56.29657227,35.53444013,-163.77619034,-79.86169884,173.41399403
74.30373630,-123.62421120,0.84329153,-16.25368297,-95.95111438,-1.58304283
-0.45619454,-1.29921430

>  <Name>
ligand

>  <RI>
0

>  <Rbt.Current_Directory>
/home/itssahil/PROJECTS/Mol_Feturizer/New_Systems/rnas/2CKY

>  <Rbt.Executable>
rbdock ($Id: //depot/dev/client3/rdock/2013.1/src/exe/rbdock.cxx#4 $)

>  <Rbt.Library>
libRbt.so (2013.1, Build901 2013/11/27)

>  <Rbt.Parameter_File>
/export/apps/rDock/src/rDock_2013.1_src/data/scripts/dock_solv.prm

>  <Rbt.Receptor>
prm/pocket_docking_2.prm

>  <SCORE>
-9.89017

>  <SCORE.INTER>
-6.96665

>  <SCORE.INTER.CONST>
1

>  <SCORE.INTER.POLAR>
0

>  <SCORE.INTER.ROT>
8

>  <SCORE.INTER.SOLV>
17.5143

>  <SCORE.INTER.VDW>
-19.4159

>  <SCORE.INTER.norm>
-0.267948

>  <SCORE.INTRA>
-3.70429

>  <SCORE.INTRA.DIHEDRAL>
-7.61473

>  <SCORE.INTRA.DIHEDRAL.0>
16.4846

>  <SCORE.INTRA.POLAR>
0

>  <SCORE.INTRA.POLAR.0>
0

>  <SCORE.INTRA.REPUL>
0

>  <SCORE.INTRA.REPUL.0>
0

>  <SCORE.INTRA.SOLV>
2.80712

>  <SCORE.INTRA.SOLV.lig_0>
-82.6983

>  <SCORE.INTRA.VDW>
-1.30048

>  <SCORE.INTRA.VDW.0>
-2.11466

>  <SCORE.INTRA.norm>
-0.142473

>  <SCORE.RESTR>
0.780772

>  <SCORE.RESTR.CAVITY>
0.780772

>  <SCORE.RESTR.norm>
0.0300297

>  <SCORE.SYSTEM>
0

>  <SCORE.SYSTEM.CONST>
0

>  <SCORE.SYSTEM.DIHEDRAL>
0

>  <SCORE.SYSTEM.SOLV>
0

>  <SCORE.SYSTEM.norm>
0

>  <SCORE.heavy>
26

>  <SCORE.norm>
-0.380391

>  <RMSD>
2.771

$$$$
ligand
 OpenBabel11021811423D
libRbt.so/2013.1/901 2013/11/27
 26 27  0  0  0  0  0  0  0  0999 V2000
    0.0227  -19.0915  -86.0757 C   0  0  0  0  0  0  0  0  0  0  0  0
    1.3796  -15.5304  -93.2130 C   0  0  0  0  0  0  0  0  0  0  0  0
    3.3217  -15.7377  -97.5388 P   0  0  2  0  0  0  0  0  0  0  0  0
    2.6332  -14.7123 -100.0177 P   0  0  2  0  0  0  0  0  0  0  0  0
    2.5974  -17.2199  -90.8436 C   0  0  0  0  0  0  0  0  0  0  0  0
    2.5753  -17.7579  -88.4207 C   0  0  0  0  0  0  0  0  0  0  0  0
    1.8863  -17.7413  -89.6266 C   0  0  0  0  0  0  0  0  0  0  0  0
    0.5515  -18.1563  -89.6466 C   0  0  0  0  0  0  0  0  0  0  0  0
   -0.2123  -18.1715  -90.7394 N   0  0  0  0  0  0  0  0  0  0  0  0
   -0.0297  -18.5848  -88.4813 N   0  0  0  0  0  0  0  0  0  0  0  0
    0.6797  -18.6084  -87.3136 C   0  0  0  0  0  0  0  0  0  0  0  0
    1.9731  -18.1975  -87.2613 N   0  0  0  0  0  0  0  0  0  0  0  0
    4.0135  -14.5432  -96.9120 O   0  5  0  0  0  0  0  0  0  0  0  0
    3.7907  -13.7522  -99.8592 O   0  0  0  0  0  0  0  0  0  0  0  0
    1.3803  -19.3945  -93.8699 S   0  0  0  0  0  0  0  0  0  0  0  0
    2.0378  -19.0571  -92.4173 C   0  0  0  0  0  0  0  0  0  0  0  0
    4.4264  -16.6174  -98.1181 O   0  0  0  0  0  0  0  0  0  0  0  0
    1.4312  -14.0438 -100.6534 O   0  5  0  0  0  0  0  0  0  0  0  0
    2.0887  -17.7126  -92.1013 N   0  0  0  0  0  0  0  0  0  0  0  0
    2.2024  -15.1646  -98.5510 O   0  0  0  0  0  0  0  0  0  0  0  0
    3.0997  -15.8832 -100.8586 O   0  0  0  0  0  0  0  0  0  0  0  0
    1.5430  -16.9965  -93.1381 C   0  0  1  0  0  0  0  0  0  0  0  0
    1.1148  -17.8482  -94.1685 C   0  0  2  0  0  0  0  0  0  0  0  0
    0.4461  -17.6500  -95.5064 C   0  0  0  0  0  0  0  0  0  0  0  0
    1.4783  -17.5322  -96.6329 C   0  0  0  0  0  0  0  0  0  0  0  0
    2.2452  -16.3484  -96.4499 O   0  0  0  0  0  0  0  0  0  0  0  0
  1 11  1  0  0  0  0
  3 13  1  1  0  0  0
  3 17  2  0  0  0  0
  3 20  1  0  0  0  0
  3 26  1  0  0  0  0
  4 14  1  1  0  0  0
  4 18  1  0  0  0  0
  4 21  2  0  0  0  0
  4 20  1  0  0  0  0
  5 19  1  0  0  0  0
  5  7  1  0  0  0  0
  6  7  2  0  0  0  0
  6 12  1  0  0  0  0
  7  8  1  0  0  0  0
  8  9  1  0  0  0  0
  8 10  2  0  0  0  0
 10 11  1  0  0  0  0
 11 12  2  0  0  0  0
 15 23  1  0  0  0  0
 15 16  1  0  0  0  0
 16 19  1  0  0  0  0
 19 22  1  0  0  0  0
 22  2  1  1  0  0  0
 22 23  1  0  0  0  0
 23 24  1  1  0  0  0
 24 25  1  0  0  0  0
 25 26  1  0  0  0  0
M  CHG  2  13  -1  18  -1
M  END
>  <CHROM.1>
82.29645423,-58.41592808,155.66726590,-51.99138385,-87.79595866,-65.47750076
-171.35714705,-174.98250281,1.98638769,-16.86826674,-94.44384160,-1.84668757
-0.91337029,-1.48570912

>  <Name>
ligand

>  <RI>
0

>  <Rbt.Current_Directory>
/home/itssahil/PROJECTS/Mol_Feturizer/New_Systems/rnas/2CKY

>  <Rbt.Executable>
rbdock ($Id: //depot/dev/client3/rdock/2013.1/src/exe/rbdock.cxx#4 $)

>  <Rbt.Library>
libRbt.so (2013.1, Build901 2013/11/27)

>  <Rbt.Parameter_File>
/export/apps/rDock/src/rDock_2013.1_src/data/scripts/dock_solv.prm

>  <Rbt.Receptor>
prm/pocket_docking_3.prm

>  <SCORE>
-21.9064

>  <SCORE.INTER>
-16.4398

>  <SCORE.INTER.CONST>
1

>  <SCORE.INTER.POLAR>
0

>  <SCORE.INTER.ROT>
8

>  <SCORE.INTER.SOLV>
13.9803

>  <SCORE.INTER.VDW>
-24.5533

>  <SCORE.INTER.norm>
-0.632299

>  <SCORE.INTRA>
-5.4708

>  <SCORE.INTRA.DIHEDRAL>
-10.3615

>  <SCORE.INTRA.DIHEDRAL.0>
16.4846

>  <SCORE.INTRA.POLAR>
0

>  <SCORE.INTRA.POLAR.0>
0

>  <SCORE.INTRA.REPUL>
0

>  <SCORE.INTRA.REPUL.0>
0

>  <SCORE.INTRA.SOLV>
3.50923

>  <SCORE.INTRA.SOLV.lig_0>
-82.6983

>  <SCORE.INTRA.VDW>
-2.04465

>  <SCORE.INTRA.VDW.0>
-2.11466

>  <SCORE.INTRA.norm>
-0.210416

>  <SCORE.RESTR>
0.00419679

>  <SCORE.RESTR.CAVITY>
0.00419679

>  <SCORE.RESTR.norm>
0.000161415

>  <SCORE.SYSTEM>
0

>  <SCORE.SYSTEM.CONST>
0

>  <SCORE.SYSTEM.DIHEDRAL>
0

>  <SCORE.SYSTEM.SOLV>
0

>  <SCORE.SYSTEM.norm>
0

>  <SCORE.heavy>
26

>  <SCORE.norm>
-0.842553

>  <RMSD>
2.780

$$$$
ligand
 OpenBabel11021811423D
libRbt.so/2013.1/901 2013/11/27
 26 27  0  0  0  0  0  0  0  0999 V2000
   -0.5062  -19.4009  -86.0897 C   0  0  0  0  0  0  0  0  0  0  0  0
    2.2706  -15.5816  -93.0105 C   0  0  0  0  0  0  0  0  0  0  0  0
    3.1738  -15.8491  -98.5550 P   0  0  2  0  0  0  0  0  0  0  0  0
    2.7009  -13.4394  -99.8355 P   0  0  2  0  0  0  0  0  0  0  0  0
    2.6321  -17.3655  -90.4340 C   0  0  0  0  0  0  0  0  0  0  0  0
    2.3583  -18.1493  -88.0950 C   0  0  0  0  0  0  0  0  0  0  0  0
    1.7727  -17.9216  -89.3336 C   0  0  0  0  0  0  0  0  0  0  0  0
    0.4050  -18.1659  -89.4883 C   0  0  0  0  0  0  0  0  0  0  0  0
   -0.2673  -17.9724  -90.6233 N   0  0  0  0  0  0  0  0  0  0  0  0
   -0.3112  -18.6407  -88.4201 N   0  0  0  0  0  0  0  0  0  0  0  0
    0.2969  -18.8738  -87.2187 C   0  0  0  0  0  0  0  0  0  0  0  0
    1.6207  -18.6318  -87.0352 N   0  0  0  0  0  0  0  0  0  0  0  0
    4.3938  -15.3204  -97.8268 O   0  5  0  0  0  0  0  0  0  0  0  0
    2.8899  -14.0785 -101.1929 O   0  0  0  0  0  0  0  0  0  0  0  0
    1.5738  -19.3903  -93.6197 S   0  0  0  0  0  0  0  0  0  0  0  0
    2.0019  -19.1238  -92.0699 C   0  0  0  0  0  0  0  0  0  0  0  0
    3.6977  -16.6405  -99.7505 O   0  0  0  0  0  0  0  0  0  0  0  0
    4.0035  -12.8981  -99.2825 O   0  5  0  0  0  0  0  0  0  0  0  0
    2.2769  -17.8047  -91.7623 N   0  0  0  0  0  0  0  0  0  0  0  0
    2.2083  -14.5888  -98.8469 O   0  0  0  0  0  0  0  0  0  0  0  0
    1.6772  -12.3306  -99.9716 O   0  0  0  0  0  0  0  0  0  0  0  0
    2.1014  -17.0441  -92.8919 C   0  0  1  0  0  0  0  0  0  0  0  0
    1.7042  -17.8394  -93.9783 C   0  0  2  0  0  0  0  0  0  0  0  0
    1.3576  -17.5745  -95.4227 C   0  0  0  0  0  0  0  0  0  0  0  0
    2.5890  -17.1283  -96.2182 C   0  0  0  0  0  0  0  0  0  0  0  0
    2.1732  -16.5566  -97.4523 O   0  0  0  0  0  0  0  0  0  0  0  0
  1 11  1  0  0  0  0
  3 13  1  1  0  0  0
  3 17  2  0  0  0  0
  3 20  1  0  0  0  0
  3 26  1  0  0  0  0
  4 14  1  6  0  0  0
  4 18  1  0  0  0  0
  4 21  2  0  0  0  0
  4 20  1  0  0  0  0
  5 19  1  0  0  0  0
  5  7  1  0  0  0  0
  6  7  2  0  0  0  0
  6 12  1  0  0  0  0
  7  8  1  0  0  0  0
  8  9  1  0  0  0  0
  8 10  2  0  0  0  0
 10 11  1  0  0  0  0
 11 12  2  0  0  0  0
 15 23  1  0  0  0  0
 15 16  1  0  0  0  0
 16 19  1  0  0  0  0
 19 22  1  0  0  0  0
 22  2  1  1  0  0  0
 22 23  1  0  0  0  0
 23 24  1  1  0  0  0
 24 25  1  0  0  0  0
 25 26  1  0  0  0  0
M  CHG  2  13  -1  18  -1
M  END
>  <CHROM.1>
65.34257265,-45.57942192,147.69697722,62.51353031,-112.49982208,-164.71892677
175.19206743,-26.49752730,2.06141699,-16.67318167,-94.48855681,2.70973203
-1.37605677,3.07588783

>  <Name>
ligand

>  <RI>
0

>  <Rbt.Current_Directory>
/home/itssahil/PROJECTS/Mol_Feturizer/New_Systems/rnas/2CKY

>  <Rbt.Executable>
rbdock ($Id: //depot/dev/client3/rdock/2013.1/src/exe/rbdock.cxx#4 $)

>  <Rbt.Library>
libRbt.so (2013.1, Build901 2013/11/27)

>  <Rbt.Parameter_File>
/export/apps/rDock/src/rDock_2013.1_src/data/scripts/dock_solv.prm

>  <Rbt.Receptor>
prm/pocket_docking_3.prm

>  <SCORE>
-23.9646

>  <SCORE.INTER>
-19.6407

>  <SCORE.INTER.CONST>
1

>  <SCORE.INTER.POLAR>
0

>  <SCORE.INTER.ROT>
8

>  <SCORE.INTER.SOLV>
13.6963

>  <SCORE.INTER.VDW>
-26.5926

>  <SCORE.INTER.norm>
-0.755411

>  <SCORE.INTRA>
-4.32392

>  <SCORE.INTRA.DIHEDRAL>
-9.2954

>  <SCORE.INTRA.DIHEDRAL.0>
16.4846

>  <SCORE.INTRA.POLAR>
0

>  <SCORE.INTRA.POLAR.0>
0

>  <SCORE.INTRA.REPUL>
0

>  <SCORE.INTRA.REPUL.0>
0

>  <SCORE.INTRA.SOLV>
3.58327

>  <SCORE.INTRA.SOLV.lig_0>
-82.6983

>  <SCORE.INTRA.VDW>
-1.46786

>  <SCORE.INTRA.VDW.0>
-2.11466

>  <SCORE.INTRA.norm>
-0.166305

>  <SCORE.RESTR>
0

>  <SCORE.RESTR.CAVITY>
0

>  <SCORE.RESTR.norm>
0

>  <SCORE.SYSTEM>
0

>  <SCORE.SYSTEM.CONST>
0

>  <SCORE.SYSTEM.DIHEDRAL>
0

>  <SCORE.SYSTEM.SOLV>
0

>  <SCORE.SYSTEM.norm>
0

>  <SCORE.heavy>
26

>  <SCORE.norm>
-0.921716

>  <RMSD>
2.797

$$$$
ligand
 OpenBabel11021811423D
libRbt.so/2013.1/901 2013/11/27
 26 27  0  0  0  0  0  0  0  0999 V2000
   -0.1521  -19.1391  -86.1073 C   0  0  0  0  0  0  0  0  0  0  0  0
    2.2035  -17.9251  -93.8267 C   0  0  0  0  0  0  0  0  0  0  0  0
    3.0857  -12.9590  -96.1599 P   0  0  2  0  0  0  0  0  0  0  0  0
    5.1344  -13.8742  -97.7834 P   0  0  2  0  0  0  0  0  0  0  0  0
    2.5957  -17.2495  -90.7704 C   0  0  0  0  0  0  0  0  0  0  0  0
    2.4564  -17.7189  -88.3371 C   0  0  0  0  0  0  0  0  0  0  0  0
    1.8433  -17.7787  -89.5819 C   0  0  0  0  0  0  0  0  0  0  0  0
    0.5392  -18.2750  -89.6684 C   0  0  0  0  0  0  0  0  0  0  0  0
   -0.1536  -18.3678  -90.8038 N   0  0  0  0  0  0  0  0  0  0  0  0
   -0.0862  -18.7050  -88.5267 N   0  0  0  0  0  0  0  0  0  0  0  0
    0.5501  -18.6520  -87.3186 C   0  0  0  0  0  0  0  0  0  0  0  0
    1.8112  -18.1614  -87.2023 N   0  0  0  0  0  0  0  0  0  0  0  0
    2.4324  -12.2985  -97.3578 O   0  5  0  0  0  0  0  0  0  0  0  0
    6.1339  -12.9633  -97.1066 O   0  0  0  0  0  0  0  0  0  0  0  0
    0.2808  -14.7139  -92.6627 S   0  0  0  0  0  0  0  0  0  0  0  0
    1.0858  -15.3870  -91.4156 C   0  0  0  0  0  0  0  0  0  0  0  0
    3.7872  -11.8457  -95.3863 O   0  0  0  0  0  0  0  0  0  0  0  0
    4.4782  -13.2037  -98.9731 O   0  5  0  0  0  0  0  0  0  0  0  0
    1.7890  -16.5345  -91.7302 N   0  0  0  0  0  0  0  0  0  0  0  0
    3.9875  -14.1760  -96.7182 O   0  0  0  0  0  0  0  0  0  0  0  0
    5.8564  -15.1352  -98.2125 O   0  0  0  0  0  0  0  0  0  0  0  0
    1.6161  -16.8038  -93.0656 C   0  0  1  0  0  0  0  0  0  0  0  0
    0.7942  -15.8406  -93.6716 C   0  0  2  0  0  0  0  0  0  0  0  0
    0.2793  -15.6068  -95.0704 C   0  0  0  0  0  0  0  0  0  0  0  0
    1.3875  -15.0867  -95.9921 C   0  0  0  0  0  0  0  0  0  0  0  0
    1.9698  -13.9215  -95.4210 O   0  0  0  0  0  0  0  0  0  0  0  0
  1 11  1  0  0  0  0
  3 13  1  6  0  0  0
  3 17  2  0  0  0  0
  3 20  1  0  0  0  0
  3 26  1  0  0  0  0
  4 14  1  1  0  0  0
  4 18  1  0  0  0  0
  4 21  2  0  0  0  0
  4 20  1  0  0  0  0
  5 19  1  0  0  0  0
  5  7  1  0  0  0  0
  6  7  2  0  0  0  0
  6 12  1  0  0  0  0
  7  8  1  0  0  0  0
  8  9  1  0  0  0  0
  8 10  2  0  0  0  0
 10 11  1  0  0  0  0
 11 12  2  0  0  0  0
 15 23  1  0  0  0  0
 15 16  1  0  0  0  0
 16 19  1  0  0  0  0
 19 22  1  0  0  0  0
 22  2  1  6  0  0  0
 22 23  1  0  0  0  0
 23 24  1  6  0  0  0
 24 25  1  0  0  0  0
 25 26  1  0  0  0  0
M  CHG  2  13  -1  18  -1
M  END
>  <CHROM.1>
57.64865198,60.81502758,-141.15327335,62.72649138,106.05719958,-54.84147027
-173.23895797,65.70464615,2.31040374,-15.49589998,-93.54189830,-1.92030032
0.27147250,-0.97516813

>  <Name>
ligand

>  <RI>
0

>  <Rbt.Current_Directory>
/home/itssahil/PROJECTS/Mol_Feturizer/New_Systems/rnas/2CKY

>  <Rbt.Executable>
rbdock ($Id: //depot/dev/client3/rdock/2013.1/src/exe/rbdock.cxx#4 $)

>  <Rbt.Library>
libRbt.so (2013.1, Build901 2013/11/27)

>  <Rbt.Parameter_File>
/export/apps/rDock/src/rDock_2013.1_src/data/scripts/dock_solv.prm

>  <Rbt.Receptor>
prm/pocket_docking_5.prm

>  <SCORE>
-23.4898

>  <SCORE.INTER>
-17.8576

>  <SCORE.INTER.CONST>
1

>  <SCORE.INTER.POLAR>
0

>  <SCORE.INTER.ROT>
8

>  <SCORE.INTER.SOLV>
14.0127

>  <SCORE.INTER.VDW>
-25.5093

>  <SCORE.INTER.norm>
-0.686829

>  <SCORE.INTRA>
-5.63222

>  <SCORE.INTRA.DIHEDRAL>
-11.1743

>  <SCORE.INTRA.DIHEDRAL.0>
16.4846

>  <SCORE.INTRA.POLAR>
0

>  <SCORE.INTRA.POLAR.0>
0

>  <SCORE.INTRA.REPUL>
0

>  <SCORE.INTRA.REPUL.0>
0

>  <SCORE.INTRA.SOLV>
3.51273

>  <SCORE.INTRA.SOLV.lig_0>
-82.6983

>  <SCORE.INTRA.VDW>
-1.80145

>  <SCORE.INTRA.VDW.0>
-2.11466

>  <SCORE.INTRA.norm>
-0.216624

>  <SCORE.RESTR>
0

>  <SCORE.RESTR.CAVITY>
0

>  <SCORE.RESTR.norm>
0

>  <SCORE.SYSTEM>
0

>  <SCORE.SYSTEM.CONST>
0

>  <SCORE.SYSTEM.DIHEDRAL>
0

>  <SCORE.SYSTEM.SOLV>
0

>  <SCORE.SYSTEM.norm>
0

>  <SCORE.heavy>
26

>  <SCORE.norm>
-0.903453

>  <RMSD>
2.807

$$$$
ligand
 OpenBabel11021811423D
libRbt.so/2013.1/901 2013/11/27
 26 27  0  0  0  0  0  0  0  0999 V2000
   -0.4505  -19.4214  -86.3195 C   0  0  0  0  0  0  0  0  0  0  0  0
    2.1756  -15.0015  -92.7333 C   0  0  0  0  0  0  0  0  0  0  0  0
    3.2208  -15.9224  -98.8531 P   0  0  2  0  0  0  0  0  0  0  0  0
    1.6976  -13.6689  -99.3747 P   0  0  2  0  0  0  0  0  0  0  0  0
    2.7897  -17.0401  -90.4056 C   0  0  0  0  0  0  0  0  0  0  0  0
    2.4286  -17.9003  -88.1056 C   0  0  0  0  0  0  0  0  0  0  0  0
    1.9080  -17.6887  -89.3757 C   0  0  0  0  0  0  0  0  0  0  0  0
    0.5770  -18.0356  -89.6255 C   0  0  0  0  0  0  0  0  0  0  0  0
   -0.0338  -17.8675  -90.7987 N   0  0  0  0  0  0  0  0  0  0  0  0
   -0.1665  -18.5912  -88.6166 N   0  0  0  0  0  0  0  0  0  0  0  0
    0.3793  -18.8054  -87.3823 C   0  0  0  0  0  0  0  0  0  0  0  0
    1.6649  -18.4650  -87.1067 N   0  0  0  0  0  0  0  0  0  0  0  0
    4.2681  -14.8972  -98.4654 O   0  5  0  0  0  0  0  0  0  0  0  0
    0.5755  -13.2785 -100.3102 O   0  0  0  0  0  0  0  0  0  0  0  0
    1.8774  -18.7588  -93.8089 S   0  0  0  0  0  0  0  0  0  0  0  0
    2.3121  -18.6408  -92.2427 C   0  0  0  0  0  0  0  0  0  0  0  0
    3.9759  -17.0880  -99.4864 O   0  0  0  0  0  0  0  0  0  0  0  0
    2.9210  -12.7965  -99.5691 O   0  5  0  0  0  0  0  0  0  0  0  0
    2.4513  -17.3479  -91.7746 N   0  0  0  0  0  0  0  0  0  0  0  0
    2.1157  -15.1607  -99.7500 O   0  0  0  0  0  0  0  0  0  0  0  0
    1.1874  -13.5634  -97.9519 O   0  0  0  0  0  0  0  0  0  0  0  0
    2.1675  -16.4771  -92.7977 C   0  0  1  0  0  0  0  0  0  0  0  0
    1.8316  -17.1706  -93.9711 C   0  0  2  0  0  0  0  0  0  0  0  0
    1.4233  -16.7686  -95.3669 C   0  0  0  0  0  0  0  0  0  0  0  0
    2.6376  -16.6739  -96.2969 C   0  0  0  0  0  0  0  0  0  0  0  0
    2.2268  -16.1679  -97.5611 O   0  0  0  0  0  0  0  0  0  0  0  0
  1 11  1  0  0  0  0
  3 13  1  1  0  0  0
  3 17  2  0  0  0  0
  3 20  1  0  0  0  0
  3 26  1  0  0  0  0
  4 14  1  6  0  0  0
  4 18  1  0  0  0  0
  4 21  2  0  0  0  0
  4 20  1  0  0  0  0
  5 19  1  0  0  0  0
  5  7  1  0  0  0  0
  6  7  2  0  0  0  0
  6 12  1  0  0  0  0
  7  8  1  0  0  0  0
  8  9  1  0  0  0  0
  8 10  2  0  0  0  0
 10 11  1  0  0  0  0
 11 12  2  0  0  0  0
 15 23  1  0  0  0  0
 15 16  1  0  0  0  0
 16 19  1  0  0  0  0
 19 22  1  0  0  0  0
 22  2  1  1  0  0  0
 22 23  1  0  0  0  0
 23 24  1  1  0  0  0
 24 25  1  0  0  0  0
 25 26  1  0  0  0  0
M  CHG  2  13  -1  18  -1
M  END
>  <CHROM.1>
-37.89432615,-52.86154967,154.89557082,-175.23638503,-87.82733189,-174.35163843
-179.48983760,-61.63123647,1.92489237,-16.49955219,-94.46954969,1.78541744
-0.96031680,2.09219655

>  <Name>
ligand

>  <RI>
0

>  <Rbt.Current_Directory>
/home/itssahil/PROJECTS/Mol_Feturizer/New_Systems/rnas/2CKY

>  <Rbt.Executable>
rbdock ($Id: //depot/dev/client3/rdock/2013.1/src/exe/rbdock.cxx#4 $)

>  <Rbt.Library>
libRbt.so (2013.1, Build901 2013/11/27)

>  <Rbt.Parameter_File>
/export/apps/rDock/src/rDock_2013.1_src/data/scripts/dock_solv.prm

>  <Rbt.Receptor>
prm/pocket_docking_3.prm

>  <SCORE>
-21.1301

>  <SCORE.INTER>
-17.1014

>  <SCORE.INTER.CONST>
1

>  <SCORE.INTER.POLAR>
0

>  <SCORE.INTER.ROT>
8

>  <SCORE.INTER.SOLV>
10.7842

>  <SCORE.INTER.VDW>
-23.929

>  <SCORE.INTER.norm>
-0.657746

>  <SCORE.INTRA>
-4.02867

>  <SCORE.INTRA.DIHEDRAL>
-10.8872

>  <SCORE.INTRA.DIHEDRAL.0>
16.4846

>  <SCORE.INTRA.POLAR>
0

>  <SCORE.INTRA.POLAR.0>
0

>  <SCORE.INTRA.REPUL>
0

>  <SCORE.INTRA.REPUL.0>
0

>  <SCORE.INTRA.SOLV>
5.88801

>  <SCORE.INTRA.SOLV.lig_0>
-82.6983

>  <SCORE.INTRA.VDW>
-1.52908

>  <SCORE.INTRA.VDW.0>
-2.11466

>  <SCORE.INTRA.norm>
-0.154949

>  <SCORE.RESTR>
0

>  <SCORE.RESTR.CAVITY>
0

>  <SCORE.RESTR.norm>
0

>  <SCORE.SYSTEM>
0

>  <SCORE.SYSTEM.CONST>
0

>  <SCORE.SYSTEM.DIHEDRAL>
0

>  <SCORE.SYSTEM.SOLV>
0

>  <SCORE.SYSTEM.norm>
0

>  <SCORE.heavy>
26

>  <SCORE.norm>
-0.812695

>  <RMSD>
2.811

$$$$
ligand
 OpenBabel11021811423D
libRbt.so/2013.1/901 2013/11/27
 26 27  0  0  0  0  0  0  0  0999 V2000
   -0.4600  -19.5033  -86.1484 C   0  0  0  0  0  0  0  0  0  0  0  0
    2.8653  -15.3708  -92.7597 C   0  0  0  0  0  0  0  0  0  0  0  0
    2.3350  -15.6854  -98.2074 P   0  0  2  0  0  0  0  0  0  0  0  0
    4.7309  -14.3233  -97.9333 P   0  0  2  0  0  0  0  0  0  0  0  0
    2.8693  -17.2947  -90.2597 C   0  0  0  0  0  0  0  0  0  0  0  0
    2.5034  -18.2312  -87.9905 C   0  0  0  0  0  0  0  0  0  0  0  0
    1.9600  -17.8919  -89.2228 C   0  0  0  0  0  0  0  0  0  0  0  0
    0.5882  -18.0680  -89.4266 C   0  0  0  0  0  0  0  0  0  0  0  0
   -0.0459  -17.7664  -90.5601 N   0  0  0  0  0  0  0  0  0  0  0  0
   -0.1739  -18.5877  -88.4125 N   0  0  0  0  0  0  0  0  0  0  0  0
    0.3926  -18.9307  -87.2173 C   0  0  0  0  0  0  0  0  0  0  0  0
    1.7197  -18.7572  -86.9859 N   0  0  0  0  0  0  0  0  0  0  0  0
    1.4546  -16.0248  -99.3940 O   0  5  0  0  0  0  0  0  0  0  0  0
    6.1192  -14.4375  -98.5216 O   0  0  0  0  0  0  0  0  0  0  0  0
    1.7506  -19.0359  -93.5892 S   0  0  0  0  0  0  0  0  0  0  0  0
    2.1226  -18.8906  -92.0091 C   0  0  0  0  0  0  0  0  0  0  0  0
    1.5737  -14.6426  -97.3933 O   0  0  0  0  0  0  0  0  0  0  0  0
    4.6857  -14.8121  -96.4998 O   0  5  0  0  0  0  0  0  0  0  0  0
    2.5368  -17.6296  -91.6238 N   0  0  0  0  0  0  0  0  0  0  0  0
    3.7851  -15.2793  -98.7892 O   0  0  0  0  0  0  0  0  0  0  0  0
    4.2978  -12.8737  -98.0169 O   0  0  0  0  0  0  0  0  0  0  0  0
    2.5156  -16.8054  -92.7218 C   0  0  1  0  0  0  0  0  0  0  0  0
    2.0856  -17.4986  -93.8641 C   0  0  2  0  0  0  0  0  0  0  0  0
    1.8524  -17.1314  -95.3088 C   0  0  0  0  0  0  0  0  0  0  0  0
    3.1392  -17.2603  -96.1309 C   0  0  0  0  0  0  0  0  0  0  0  0
    2.8378  -17.0923  -97.5107 O   0  0  0  0  0  0  0  0  0  0  0  0
  1 11  1  0  0  0  0
  3 13  1  6  0  0  0
  3 17  2  0  0  0  0
  3 20  1  0  0  0  0
  3 26  1  0  0  0  0
  4 14  1  6  0  0  0
  4 18  1  0  0  0  0
  4 21  2  0  0  0  0
  4 20  1  0  0  0  0
  5 19  1  0  0  0  0
  5  7  1  0  0  0  0
  6  7  2  0  0  0  0
  6 12  1  0  0  0  0
  7  8  1  0  0  0  0
  8  9  1  0  0  0  0
  8 10  2  0  0  0  0
 10 11  1  0  0  0  0
 11 12  2  0  0  0  0
 15 23  1  0  0  0  0
 15 16  1  0  0  0  0
 16 19  1  0  0  0  0
 19 22  1  0  0  0  0
 22  2  1  1  0  0  0
 22 23  1  0  0  0  0
 23 24  1  1  0  0  0
 24 25  1  0  0  0  0
 25 26  1  0  0  0  0
M  CHG  2  13  -1  18  -1
M  END
>  <CHROM.1>
154.91795244,-40.32675816,147.34600318,164.45951846,-93.59000079,171.78225370
67.70757596,-150.26838570,2.43904327,-16.75445097,-93.95993983,1.90651526
0.69995593,1.70692174

>  <Name>
ligand

>  <RI>
0

>  <Rbt.Current_Directory>
/home/itssahil/PROJECTS/Mol_Feturizer/New_Systems/rnas/2CKY

>  <Rbt.Executable>
rbdock ($Id: //depot/dev/client3/rdock/2013.1/src/exe/rbdock.cxx#4 $)

>  <Rbt.Library>
libRbt.so (2013.1, Build901 2013/11/27)

>  <Rbt.Parameter_File>
/export/apps/rDock/src/rDock_2013.1_src/data/scripts/dock_solv.prm

>  <Rbt.Receptor>
prm/pocket_docking_4.prm

>  <SCORE>
-24.2318

>  <SCORE.INTER>
-21.6376

>  <SCORE.INTER.CONST>
1

>  <SCORE.INTER.POLAR>
0

>  <SCORE.INTER.ROT>
8

>  <SCORE.INTER.SOLV>
10.9218

>  <SCORE.INTER.VDW>
-26.999

>  <SCORE.INTER.norm>
-0.832215

>  <SCORE.INTRA>
-2.61334

>  <SCORE.INTRA.DIHEDRAL>
-8.24362

>  <SCORE.INTRA.DIHEDRAL.0>
16.4846

>  <SCORE.INTRA.POLAR>
0

>  <SCORE.INTRA.POLAR.0>
0

>  <SCORE.INTRA.REPUL>
0

>  <SCORE.INTRA.REPUL.0>
0

>  <SCORE.INTRA.SOLV>
6.46081

>  <SCORE.INTRA.SOLV.lig_0>
-82.6983

>  <SCORE.INTRA.VDW>
-1.72193

>  <SCORE.INTRA.VDW.0>
-2.11466

>  <SCORE.INTRA.norm>
-0.100513

>  <SCORE.RESTR>
0.0191766

>  <SCORE.RESTR.CAVITY>
0.0191766

>  <SCORE.RESTR.norm>
0.00073756

>  <SCORE.SYSTEM>
0

>  <SCORE.SYSTEM.CONST>
0

>  <SCORE.SYSTEM.DIHEDRAL>
0

>  <SCORE.SYSTEM.SOLV>
0

>  <SCORE.SYSTEM.norm>
0

>  <SCORE.heavy>
26

>  <SCORE.norm>
-0.93199

>  <RMSD>
2.814

$$$$
ligand
 OpenBabel11021811423D
libRbt.so/2013.1/901 2013/11/27
 26 27  0  0  0  0  0  0  0  0999 V2000
   -0.2574  -19.4305  -85.9691 C   0  0  0  0  0  0  0  0  0  0  0  0
    2.6336  -15.7990  -93.3246 C   0  0  0  0  0  0  0  0  0  0  0  0
   -0.5731  -15.0215  -96.8306 P   0  0  2  0  0  0  0  0  0  0  0  0
   -0.1168  -12.6610  -98.2056 P   0  0  2  0  0  0  0  0  0  0  0  0
    2.4483  -17.1723  -90.4907 C   0  0  0  0  0  0  0  0  0  0  0  0
    2.3842  -17.9959  -88.1502 C   0  0  0  0  0  0  0  0  0  0  0  0
    1.7010  -17.7885  -89.3415 C   0  0  0  0  0  0  0  0  0  0  0  0
    0.3417  -18.1087  -89.4042 C   0  0  0  0  0  0  0  0  0  0  0  0
   -0.4186  -17.9414  -90.4866 N   0  0  0  0  0  0  0  0  0  0  0  0
   -0.2698  -18.6351  -88.2958 N   0  0  0  0  0  0  0  0  0  0  0  0
    0.4334  -18.8462  -87.1433 C   0  0  0  0  0  0  0  0  0  0  0  0
    1.7512  -18.5312  -87.0489 N   0  0  0  0  0  0  0  0  0  0  0  0
   -1.2303  -15.6356  -98.0508 O   0  5  0  0  0  0  0  0  0  0  0  0
   -0.6878  -13.2354  -99.4825 O   0  0  0  0  0  0  0  0  0  0  0  0
    1.4882  -19.5450  -93.4601 S   0  0  0  0  0  0  0  0  0  0  0  0
    1.7700  -19.0842  -91.9224 C   0  0  0  0  0  0  0  0  0  0  0  0
   -1.7071  -14.5885  -95.9052 O   0  0  0  0  0  0  0  0  0  0  0  0
    1.0467  -11.7298  -98.4789 O   0  5  0  0  0  0  0  0  0  0  0  0
    2.1889  -17.7752  -91.7763 N   0  0  0  0  0  0  0  0  0  0  0  0
    0.4476  -13.8873  -97.3578 O   0  0  0  0  0  0  0  0  0  0  0  0
   -1.2259  -11.9298  -97.4767 O   0  0  0  0  0  0  0  0  0  0  0  0
    2.2505  -17.1921  -93.0179 C   0  0  1  0  0  0  0  0  0  0  0  0
    1.8728  -18.0996  -94.0201 C   0  0  2  0  0  0  0  0  0  0  0  0
    1.7329  -18.0326  -95.5209 C   0  0  0  0  0  0  0  0  0  0  0  0
    0.3949  -17.4063  -95.9281 C   0  0  0  0  0  0  0  0  0  0  0  0
    0.6011  -16.0483  -96.2973 O   0  0  0  0  0  0  0  0  0  0  0  0
  1 11  1  0  0  0  0
  3 13  1  6  0  0  0
  3 17  2  0  0  0  0
  3 20  1  0  0  0  0
  3 26  1  0  0  0  0
  4 14  1  6  0  0  0
  4 18  1  0  0  0  0
  4 21  2  0  0  0  0
  4 20  1  0  0  0  0
  5 19  1  0  0  0  0
  5  7  1  0  0  0  0
  6  7  2  0  0  0  0
  6 12  1  0  0  0  0
  7  8  1  0  0  0  0
  8  9  1  0  0  0  0
  8 10  2  0  0  0  0
 10 11  1  0  0  0  0
 11 12  2  0  0  0  0
 15 23  1  0  0  0  0
 15 16  1  0  0  0  0
 16 19  1  0  0  0  0
 19 22  1  0  0  0  0
 22  2  1  1  0  0  0
 22 23  1  0  0  0  0
 23 24  1  1  0  0  0
 24 25  1  0  0  0  0
 25 26  1  0  0  0  0
M  CHG  2  13  -1  18  -1
M  END
>  <CHROM.1>
60.10127045,-25.52174712,137.68593574,-63.48402423,97.92320285,100.90822555
178.62278754,-56.94401843,0.61413729,-16.38254249,-93.78905220,1.26183974
-1.12920903,1.79446773

>  <Name>
ligand

>  <RI>
0

>  <Rbt.Current_Directory>
/home/itssahil/PROJECTS/Mol_Feturizer/New_Systems/rnas/2CKY

>  <Rbt.Executable>
rbdock ($Id: //depot/dev/client3/rdock/2013.1/src/exe/rbdock.cxx#4 $)

>  <Rbt.Library>
libRbt.so (2013.1, Build901 2013/11/27)

>  <Rbt.Parameter_File>
/export/apps/rDock/src/rDock_2013.1_src/data/scripts/dock_solv.prm

>  <Rbt.Receptor>
prm/pocket_docking_3.prm

>  <SCORE>
-20.0976

>  <SCORE.INTER>
-16.1387

>  <SCORE.INTER.CONST>
1

>  <SCORE.INTER.POLAR>
0

>  <SCORE.INTER.ROT>
8

>  <SCORE.INTER.SOLV>
10.0163

>  <SCORE.INTER.VDW>
-23.0312

>  <SCORE.INTER.norm>
-0.620719

>  <SCORE.INTRA>
-3.95891

>  <SCORE.INTRA.DIHEDRAL>
-7.33465

>  <SCORE.INTRA.DIHEDRAL.0>
16.4846

>  <SCORE.INTRA.POLAR>
0

>  <SCORE.INTRA.POLAR.0>
0

>  <SCORE.INTRA.REPUL>
0

>  <SCORE.INTRA.REPUL.0>
0

>  <SCORE.INTRA.SOLV>
2.52473

>  <SCORE.INTRA.SOLV.lig_0>
-82.6983

>  <SCORE.INTRA.VDW>
-1.55395

>  <SCORE.INTRA.VDW.0>
-2.11466

>  <SCORE.INTRA.norm>
-0.152266

>  <SCORE.RESTR>
0

>  <SCORE.RESTR.CAVITY>
0

>  <SCORE.RESTR.norm>
0

>  <SCORE.SYSTEM>
0

>  <SCORE.SYSTEM.CONST>
0

>  <SCORE.SYSTEM.DIHEDRAL>
0

>  <SCORE.SYSTEM.SOLV>
0

>  <SCORE.SYSTEM.norm>
0

>  <SCORE.heavy>
26

>  <SCORE.norm>
-0.772985

>  <RMSD>
2.829

$$$$
ligand
 OpenBabel11021811423D
libRbt.so/2013.1/901 2013/11/27
 26 27  0  0  0  0  0  0  0  0999 V2000
    4.2553  -16.9907  -88.6042 C   0  0  0  0  0  0  0  0  0  0  0  0
   -0.5747  -15.6569  -93.5171 C   0  0  0  0  0  0  0  0  0  0  0  0
    1.3837  -14.0990  -98.2964 P   0  0  2  0  0  0  0  0  0  0  0  0
    1.2214  -14.7570 -100.9817 P   0  0  2  0  0  0  0  0  0  0  0  0
   -0.7100  -17.9134  -91.3170 C   0  0  0  0  0  0  0  0  0  0  0  0
    1.5419  -16.8852  -91.1378 C   0  0  0  0  0  0  0  0  0  0  0  0
    0.5848  -17.7219  -90.5784 C   0  0  0  0  0  0  0  0  0  0  0  0
    0.8421  -18.3037  -89.3336 C   0  0  0  0  0  0  0  0  0  0  0  0
   -0.0046  -19.1112  -88.6942 N   0  0  0  0  0  0  0  0  0  0  0  0
    2.0374  -18.0467  -88.7132 N   0  0  0  0  0  0  0  0  0  0  0  0
    2.9680  -17.2346  -89.2977 C   0  0  0  0  0  0  0  0  0  0  0  0
    2.7395  -16.6442  -90.4993 N   0  0  0  0  0  0  0  0  0  0  0  0
    0.9302  -12.9278  -97.4473 O   0  5  0  0  0  0  0  0  0  0  0  0
    2.4893  -14.0446 -101.3958 O   0  0  0  0  0  0  0  0  0  0  0  0
   -0.4204  -19.2918  -94.9755 S   0  0  0  0  0  0  0  0  0  0  0  0
   -0.5245  -19.3275  -93.3494 C   0  0  0  0  0  0  0  0  0  0  0  0
    2.9098  -14.0734  -98.2818 O   0  0  0  0  0  0  0  0  0  0  0  0
    0.1679  -14.7078 -102.0695 O   0  5  0  0  0  0  0  0  0  0  0  0
   -0.5751  -18.0863  -92.7436 N   0  0  0  0  0  0  0  0  0  0  0  0
    0.6388  -13.9716  -99.7229 O   0  0  0  0  0  0  0  0  0  0  0  0
    1.5723  -16.1916 -100.6429 O   0  0  0  0  0  0  0  0  0  0  0  0
   -0.5282  -17.1195  -93.7175 C   0  0  1  0  0  0  0  0  0  0  0  0
   -0.4462  -17.6950  -94.9953 C   0  0  2  0  0  0  0  0  0  0  0  0
   -0.3846  -17.1581  -96.4040 C   0  0  0  0  0  0  0  0  0  0  0  0
    0.6705  -16.0544  -96.5337 C   0  0  0  0  0  0  0  0  0  0  0  0
    0.5612  -15.4436  -97.8135 O   0  0  0  0  0  0  0  0  0  0  0  0
  1 11  1  0  0  0  0
  3 13  1  1  0  0  0
  3 17  2  0  0  0  0
  3 20  1  0  0  0  0
  3 26  1  0  0  0  0
  4 14  1  6  0  0  0
  4 18  1  0  0  0  0
  4 21  2  0  0  0  0
  4 20  1  0  0  0  0
  5 19  1  0  0  0  0
  5  7  1  0  0  0  0
  6  7  2  0  0  0  0
  6 12  1  0  0  0  0
  7  8  1  0  0  0  0
  8  9  1  0  0  0  0
  8 10  2  0  0  0  0
 10 11  1  0  0  0  0
 11 12  2  0  0  0  0
 15 23  1  0  0  0  0
 15 16  1  0  0  0  0
 16 19  1  0  0  0  0
 19 22  1  0  0  0  0
 22  2  1  6  0  0  0
 22 23  1  0  0  0  0
 23 24  1  6  0  0  0
 24 25  1  0  0  0  0
 25 26  1  0  0  0  0
M  CHG  2  13  -1  18  -1
M  END
>  <CHROM.1>
161.00631683,95.23903039,42.55142334,-72.54326619,-131.71878092,-171.49166637
172.35796170,-64.69655729,0.90136296,-16.35760913,-95.31870354,-1.57476661
-0.77668455,-1.24730359

>  <Name>
ligand

>  <RI>
0

>  <Rbt.Current_Directory>
/home/itssahil/PROJECTS/Mol_Feturizer/New_Systems/rnas/2CKY

>  <Rbt.Executable>
rbdock ($Id: //depot/dev/client3/rdock/2013.1/src/exe/rbdock.cxx#4 $)

>  <Rbt.Library>
libRbt.so (2013.1, Build901 2013/11/27)

>  <Rbt.Parameter_File>
/export/apps/rDock/src/rDock_2013.1_src/data/scripts/dock_solv.prm

>  <Rbt.Receptor>
prm/pocket_docking_3.prm

>  <SCORE>
-16.5494

>  <SCORE.INTER>
-9.85766

>  <SCORE.INTER.CONST>
1

>  <SCORE.INTER.POLAR>
0

>  <SCORE.INTER.ROT>
8

>  <SCORE.INTER.SOLV>
17.8964

>  <SCORE.INTER.VDW>
-21.4706

>  <SCORE.INTER.norm>
-0.379141

>  <SCORE.INTRA>
-6.69173

>  <SCORE.INTRA.DIHEDRAL>
-10.3327

>  <SCORE.INTRA.DIHEDRAL.0>
16.4846

>  <SCORE.INTRA.POLAR>
0

>  <SCORE.INTRA.POLAR.0>
0

>  <SCORE.INTRA.REPUL>
0

>  <SCORE.INTRA.REPUL.0>
0

>  <SCORE.INTRA.SOLV>
-0.365058

>  <SCORE.INTRA.SOLV.lig_0>
-82.6983

>  <SCORE.INTRA.VDW>
-1.34287

>  <SCORE.INTRA.VDW.0>
-2.11466

>  <SCORE.INTRA.norm>
-0.257374

>  <SCORE.RESTR>
0

>  <SCORE.RESTR.CAVITY>
0

>  <SCORE.RESTR.norm>
0

>  <SCORE.SYSTEM>
0

>  <SCORE.SYSTEM.CONST>
0

>  <SCORE.SYSTEM.DIHEDRAL>
0

>  <SCORE.SYSTEM.SOLV>
0

>  <SCORE.SYSTEM.norm>
0

>  <SCORE.heavy>
26

>  <SCORE.norm>
-0.636515

>  <RMSD>
2.837

$$$$
ligand
 OpenBabel11021811423D
libRbt.so/2013.1/901 2013/11/27
 26 27  0  0  0  0  0  0  0  0999 V2000
   -0.1388  -19.2787  -85.7746 C   0  0  0  0  0  0  0  0  0  0  0  0
    1.5732  -19.6477  -92.6390 C   0  0  0  0  0  0  0  0  0  0  0  0
    2.3036  -16.8880  -97.4592 P   0  0  2  0  0  0  0  0  0  0  0  0
    3.0365  -14.4842  -96.2951 P   0  0  2  0  0  0  0  0  0  0  0  0
    2.1414  -17.2760  -90.6382 C   0  0  0  0  0  0  0  0  0  0  0  0
    2.3078  -18.0614  -88.2896 C   0  0  0  0  0  0  0  0  0  0  0  0
    1.5000  -17.8229  -89.3939 C   0  0  0  0  0  0  0  0  0  0  0  0
    0.1246  -18.0484  -89.2849 C   0  0  0  0  0  0  0  0  0  0  0  0
   -0.7490  -17.8432  -90.2710 N   0  0  0  0  0  0  0  0  0  0  0  0
   -0.3812  -18.5159  -88.0996 N   0  0  0  0  0  0  0  0  0  0  0  0
    0.4415  -18.7599  -87.0362 C   0  0  0  0  0  0  0  0  0  0  0  0
    1.7792  -18.5363  -87.1085 N   0  0  0  0  0  0  0  0  0  0  0  0
    3.6420  -17.2484  -96.8454 O   0  5  0  0  0  0  0  0  0  0  0  0
    2.4474  -13.0959  -96.1849 O   0  0  0  0  0  0  0  0  0  0  0  0
   -0.2542  -16.3126  -93.5880 S   0  0  0  0  0  0  0  0  0  0  0  0
    0.6135  -16.1251  -92.2213 C   0  0  0  0  0  0  0  0  0  0  0  0
    2.2917  -17.5062  -98.8548 O   0  0  0  0  0  0  0  0  0  0  0  0
    4.4483  -14.4540  -96.8444 O   0  5  0  0  0  0  0  0  0  0  0  0
    1.2883  -17.2562  -91.8023 N   0  0  0  0  0  0  0  0  0  0  0  0
    2.1392  -15.2865  -97.3402 O   0  0  0  0  0  0  0  0  0  0  0  0
    3.0122  -15.1204  -94.9202 O   0  0  0  0  0  0  0  0  0  0  0  0
    1.0388  -18.2718  -92.6921 C   0  0  1  0  0  0  0  0  0  0  0  0
    0.1925  -17.8399  -93.7254 C   0  0  2  0  0  0  0  0  0  0  0  0
   -0.3978  -18.4802  -94.9575 C   0  0  0  0  0  0  0  0  0  0  0  0
    0.6277  -18.5513  -96.0939 C   0  0  0  0  0  0  0  0  0  0  0  0
    1.1171  -17.2451  -96.3718 O   0  0  0  0  0  0  0  0  0  0  0  0
  1 11  1  0  0  0  0
  3 13  1  1  0  0  0
  3 17  2  0  0  0  0
  3 20  1  0  0  0  0
  3 26  1  0  0  0  0
  4 14  1  1  0  0  0
  4 18  1  0  0  0  0
  4 21  2  0  0  0  0
  4 20  1  0  0  0  0
  5 19  1  0  0  0  0
  5  7  1  0  0  0  0
  6  7  2  0  0  0  0
  6 12  1  0  0  0  0
  7  8  1  0  0  0  0
  8  9  1  0  0  0  0
  8 10  2  0  0  0  0
 10 11  1  0  0  0  0
 11 12  2  0  0  0  0
 15 23  1  0  0  0  0
 15 16  1  0  0  0  0
 16 19  1  0  0  0  0
 19 22  1  0  0  0  0
 22  2  1  6  0  0  0
 22 23  1  0  0  0  0
 23 24  1  6  0  0  0
 24 25  1  0  0  0  0
 25 26  1  0  0  0  0
M  CHG  2  13  -1  18  -1
M  END
>  <CHROM.1>
-18.84210208,98.43088123,170.52955625,-167.25673640,100.77773549,-56.44112392
176.00038060,-76.88729895,1.48107058,-17.00408145,-93.42519875,-1.94792413
-0.95815495,-1.59542466

>  <Name>
ligand

>  <RI>
0

>  <Rbt.Current_Directory>
/home/itssahil/PROJECTS/Mol_Feturizer/New_Systems/rnas/2CKY

>  <Rbt.Executable>
rbdock ($Id: //depot/dev/client3/rdock/2013.1/src/exe/rbdock.cxx#4 $)

>  <Rbt.Library>
libRbt.so (2013.1, Build901 2013/11/27)

>  <Rbt.Parameter_File>
/export/apps/rDock/src/rDock_2013.1_src/data/scripts/dock_solv.prm

>  <Rbt.Receptor>
prm/pocket_docking_4.prm

>  <SCORE>
-19.3915

>  <SCORE.INTER>
-15.0779

>  <SCORE.INTER.CONST>
1

>  <SCORE.INTER.POLAR>
0

>  <SCORE.INTER.ROT>
8

>  <SCORE.INTER.SOLV>
17.2717

>  <SCORE.INTER.VDW>
-24.7425

>  <SCORE.INTER.norm>
-0.579921

>  <SCORE.INTRA>
-4.31358

>  <SCORE.INTRA.DIHEDRAL>
-9.45707

>  <SCORE.INTRA.DIHEDRAL.0>
16.4846

>  <SCORE.INTRA.POLAR>
0

>  <SCORE.INTRA.POLAR.0>
0

>  <SCORE.INTRA.REPUL>
0

>  <SCORE.INTRA.REPUL.0>
0

>  <SCORE.INTRA.SOLV>
6.20116

>  <SCORE.INTRA.SOLV.lig_0>
-82.6983

>  <SCORE.INTRA.VDW>
-2.68562

>  <SCORE.INTRA.VDW.0>
-2.11466

>  <SCORE.INTRA.norm>
-0.165907

>  <SCORE.RESTR>
0

>  <SCORE.RESTR.CAVITY>
0

>  <SCORE.RESTR.norm>
0

>  <SCORE.SYSTEM>
0

>  <SCORE.SYSTEM.CONST>
0

>  <SCORE.SYSTEM.DIHEDRAL>
0

>  <SCORE.SYSTEM.SOLV>
0

>  <SCORE.SYSTEM.norm>
0

>  <SCORE.heavy>
26

>  <SCORE.norm>
-0.745828

>  <RMSD>
2.888

$$$$
ligand
 OpenBabel11021811423D
libRbt.so/2013.1/901 2013/11/27
 26 27  0  0  0  0  0  0  0  0999 V2000
    1.5194  -18.4455  -87.6962 C   0  0  0  0  0  0  0  0  0  0  0  0
   -1.2783  -15.7772  -95.6048 C   0  0  0  0  0  0  0  0  0  0  0  0
    1.9862  -16.1421  -98.8524 P   0  0  2  0  0  0  0  0  0  0  0  0
    4.6683  -16.2834  -98.1766 P   0  0  2  0  0  0  0  0  0  0  0  0
   -0.7337  -16.4289  -92.5667 C   0  0  0  0  0  0  0  0  0  0  0  0
   -0.9112  -17.5391  -90.3539 C   0  0  0  0  0  0  0  0  0  0  0  0
   -0.0996  -16.9200  -91.2957 C   0  0  0  0  0  0  0  0  0  0  0  0
    1.2732  -16.8292  -91.0477 C   0  0  0  0  0  0  0  0  0  0  0  0
    2.1502  -16.2700  -91.8820 N   0  0  0  0  0  0  0  0  0  0  0  0
    1.7727  -17.3356  -89.8757 N   0  0  0  0  0  0  0  0  0  0  0  0
    0.9461  -17.9219  -88.9590 C   0  0  0  0  0  0  0  0  0  0  0  0
   -0.3891  -18.0371  -89.1795 N   0  0  0  0  0  0  0  0  0  0  0  0
    2.1514  -16.8348 -100.1907 O   0  5  0  0  0  0  0  0  0  0  0  0
    4.6851  -14.7887  -98.4051 O   0  0  0  0  0  0  0  0  0  0  0  0
   -0.2285  -19.4971  -94.9540 S   0  0  0  0  0  0  0  0  0  0  0  0
   -0.2589  -18.6547  -93.5592 C   0  0  0  0  0  0  0  0  0  0  0  0
    1.9449  -14.6449  -99.1469 O   0  0  0  0  0  0  0  0  0  0  0  0
    5.1080  -17.0457  -99.4100 O   0  5  0  0  0  0  0  0  0  0  0  0
   -0.6113  -17.3249  -93.6916 N   0  0  0  0  0  0  0  0  0  0  0  0
    3.1551  -16.6902  -97.8834 O   0  0  0  0  0  0  0  0  0  0  0  0
    5.5769  -16.5944  -97.0047 O   0  0  0  0  0  0  0  0  0  0  0  0
   -0.8564  -17.0651  -95.0175 C   0  0  1  0  0  0  0  0  0  0  0  0
   -0.6738  -18.2169  -95.7988 C   0  0  2  0  0  0  0  0  0  0  0  0
   -0.8080  -18.5417  -97.2661 C   0  0  0  0  0  0  0  0  0  0  0  0
    0.4994  -18.2711  -98.0183 C   0  0  0  0  0  0  0  0  0  0  0  0
    0.7547  -16.8720  -98.0350 O   0  0  0  0  0  0  0  0  0  0  0  0
  1 11  1  0  0  0  0
  3 13  1  6  0  0  0
  3 17  2  0  0  0  0
  3 20  1  0  0  0  0
  3 26  1  0  0  0  0
  4 14  1  6  0  0  0
  4 18  1  0  0  0  0
  4 21  2  0  0  0  0
  4 20  1  0  0  0  0
  5 19  1  0  0  0  0
  5  7  1  0  0  0  0
  6  7  2  0  0  0  0
  6 12  1  0  0  0  0
  7  8  1  0  0  0  0
  8  9  1  0  0  0  0
  8 10  2  0  0  0  0
 10 11  1  0  0  0  0
 11 12  2  0  0  0  0
 15 23  1  0  0  0  0
 15 16  1  0  0  0  0
 16 19  1  0  0  0  0
 19 22  1  0  0  0  0
 22  2  1  1  0  0  0
 22 23  1  0  0  0  0
 23 24  1  1  0  0  0
 24 25  1  0  0  0  0
 25 26  1  0  0  0  0
M  CHG  2  13  -1  18  -1
M  END
>  <CHROM.1>
69.29463898,15.93627297,-97.37291997,47.75006046,-91.98450872,-67.43482532
-174.35571796,39.11497943,1.42439627,-17.09796389,-95.27159547,-1.91644890
-0.30212677,-1.51122038

>  <Name>
ligand

>  <RI>
0

>  <Rbt.Current_Directory>
/home/itssahil/PROJECTS/Mol_Feturizer/New_Systems/rnas/2CKY

>  <Rbt.Executable>
rbdock ($Id: //depot/dev/client3/rdock/2013.1/src/exe/rbdock.cxx#4 $)

>  <Rbt.Library>
libRbt.so (2013.1, Build901 2013/11/27)

>  <Rbt.Parameter_File>
/export/apps/rDock/src/rDock_2013.1_src/data/scripts/dock_solv.prm

>  <Rbt.Receptor>
prm/pocket_docking_4.prm

>  <SCORE>
-18.786

>  <SCORE.INTER>
-12.3342

>  <SCORE.INTER.CONST>
1

>  <SCORE.INTER.POLAR>
0

>  <SCORE.INTER.ROT>
8

>  <SCORE.INTER.SOLV>
14.6176

>  <SCORE.INTER.VDW>
-22.0286

>  <SCORE.INTER.norm>
-0.474392

>  <SCORE.INTRA>
-6.45179

>  <SCORE.INTRA.DIHEDRAL>
-10.6277

>  <SCORE.INTRA.DIHEDRAL.0>
16.4846

>  <SCORE.INTRA.POLAR>
0

>  <SCORE.INTRA.POLAR.0>
0

>  <SCORE.INTRA.REPUL>
0

>  <SCORE.INTRA.REPUL.0>
0

>  <SCORE.INTRA.SOLV>
0.70803

>  <SCORE.INTRA.SOLV.lig_0>
-82.6983

>  <SCORE.INTRA.VDW>
-1.49194

>  <SCORE.INTRA.VDW.0>
-2.11466

>  <SCORE.INTRA.norm>
-0.248146

>  <SCORE.RESTR>
0

>  <SCORE.RESTR.CAVITY>
0

>  <SCORE.RESTR.norm>
0

>  <SCORE.SYSTEM>
0

>  <SCORE.SYSTEM.CONST>
0

>  <SCORE.SYSTEM.DIHEDRAL>
0

>  <SCORE.SYSTEM.SOLV>
0

>  <SCORE.SYSTEM.norm>
0

>  <SCORE.heavy>
26

>  <SCORE.norm>
-0.722537

>  <RMSD>
2.895

$$$$
ligand
 OpenBabel11021811423D
libRbt.so/2013.1/901 2013/11/27
 26 27  0  0  0  0  0  0  0  0999 V2000
    1.8809  -17.9707  -88.4564 C   0  0  0  0  0  0  0  0  0  0  0  0
   -0.0149  -16.0442  -94.6983 C   0  0  0  0  0  0  0  0  0  0  0  0
    0.1775  -14.9441 -100.6435 P   0  0  2  0  0  0  0  0  0  0  0  0
    2.3086  -13.2457 -100.1492 P   0  0  2  0  0  0  0  0  0  0  0  0
   -1.3727  -18.4361  -93.1535 C   0  0  0  0  0  0  0  0  0  0  0  0
   -0.9754  -17.7046  -90.8152 C   0  0  0  0  0  0  0  0  0  0  0  0
   -0.4729  -18.3179  -91.9555 C   0  0  0  0  0  0  0  0  0  0  0  0
    0.8216  -18.8448  -91.9233 C   0  0  0  0  0  0  0  0  0  0  0  0
    1.4040  -19.4653  -92.9498 N   0  0  0  0  0  0  0  0  0  0  0  0
    1.5613  -18.7229  -90.7756 N   0  0  0  0  0  0  0  0  0  0  0  0
    1.0468  -18.0967  -89.6754 C   0  0  0  0  0  0  0  0  0  0  0  0
   -0.2126  -17.5883  -89.6730 N   0  0  0  0  0  0  0  0  0  0  0  0
   -0.2706  -15.8763 -101.7518 O   0  5  0  0  0  0  0  0  0  0  0  0
    2.8493  -14.0594  -98.9950 O   0  0  0  0  0  0  0  0  0  0  0  0
    0.1939  -19.4674  -96.5960 S   0  0  0  0  0  0  0  0  0  0  0  0
   -0.5750  -19.6453  -95.1700 C   0  0  0  0  0  0  0  0  0  0  0  0
   -1.0071  -14.0274 -100.3494 O   0  0  0  0  0  0  0  0  0  0  0  0
    1.2849  -12.2279  -99.6889 O   0  5  0  0  0  0  0  0  0  0  0  0
   -0.6888  -18.4877  -94.4235 N   0  0  0  0  0  0  0  0  0  0  0  0
    1.5603  -14.2626 -101.1224 O   0  0  0  0  0  0  0  0  0  0  0  0
    3.4737  -12.5593 -100.8327 O   0  0  0  0  0  0  0  0  0  0  0  0
   -0.1041  -17.4575  -95.1180 C   0  0  1  0  0  0  0  0  0  0  0  0
    0.4120  -17.9054  -96.3441 C   0  0  2  0  0  0  0  0  0  0  0  0
    1.1263  -17.2528  -97.5019 C   0  0  0  0  0  0  0  0  0  0  0  0
    0.1384  -16.5601  -98.4467 C   0  0  0  0  0  0  0  0  0  0  0  0
    0.8589  -15.8475  -99.4447 O   0  0  0  0  0  0  0  0  0  0  0  0
  1 11  1  0  0  0  0
  3 13  1  6  0  0  0
  3 17  2  0  0  0  0
  3 20  1  0  0  0  0
  3 26  1  0  0  0  0
  4 14  1  1  0  0  0
  4 18  1  0  0  0  0
  4 21  2  0  0  0  0
  4 20  1  0  0  0  0
  5 19  1  0  0  0  0
  5  7  1  0  0  0  0
  6  7  2  0  0  0  0
  6 12  1  0  0  0  0
  7  8  1  0  0  0  0
  8  9  1  0  0  0  0
  8 10  2  0  0  0  0
 10 11  1  0  0  0  0
 11 12  2  0  0  0  0
 15 23  1  0  0  0  0
 15 16  1  0  0  0  0
 16 19  1  0  0  0  0
 19 22  1  0  0  0  0
 22  2  1  6  0  0  0
 22 23  1  0  0  0  0
 23 24  1  6  0  0  0
 24 25  1  0  0  0  0
 25 26  1  0  0  0  0
M  CHG  2  13  -1  18  -1
M  END
>  <CHROM.1>
-178.59132368,106.66007840,152.76705392,69.66926687,98.19810968,174.18783646
-178.94510358,-80.56200150,0.67061820,-16.49829376,-96.42572794,-1.73922996
-1.01759152,-1.26854008

>  <Name>
ligand

>  <RI>
0

>  <Rbt.Current_Directory>
/home/itssahil/PROJECTS/Mol_Feturizer/New_Systems/rnas/2CKY

>  <Rbt.Executable>
rbdock ($Id: //depot/dev/client3/rdock/2013.1/src/exe/rbdock.cxx#4 $)

>  <Rbt.Library>
libRbt.so (2013.1, Build901 2013/11/27)

>  <Rbt.Parameter_File>
/export/apps/rDock/src/rDock_2013.1_src/data/scripts/dock_solv.prm

>  <Rbt.Receptor>
prm/pocket_docking_4.prm

>  <SCORE>
-14.8653

>  <SCORE.INTER>
-8.51328

>  <SCORE.INTER.CONST>
1

>  <SCORE.INTER.POLAR>
0

>  <SCORE.INTER.ROT>
8

>  <SCORE.INTER.SOLV>
21.9125

>  <SCORE.INTER.VDW>
-21.913

>  <SCORE.INTER.norm>
-0.327434

>  <SCORE.INTRA>
-6.35205

>  <SCORE.INTRA.DIHEDRAL>
-11.1016

>  <SCORE.INTRA.DIHEDRAL.0>
16.4846

>  <SCORE.INTRA.POLAR>
0

>  <SCORE.INTRA.POLAR.0>
0

>  <SCORE.INTRA.REPUL>
0

>  <SCORE.INTRA.REPUL.0>
0

>  <SCORE.INTRA.SOLV>
2.48857

>  <SCORE.INTRA.SOLV.lig_0>
-82.6983

>  <SCORE.INTRA.VDW>
-2.04553

>  <SCORE.INTRA.VDW.0>
-2.11466

>  <SCORE.INTRA.norm>
-0.24431

>  <SCORE.RESTR>
0

>  <SCORE.RESTR.CAVITY>
0

>  <SCORE.RESTR.norm>
0

>  <SCORE.SYSTEM>
0

>  <SCORE.SYSTEM.CONST>
0

>  <SCORE.SYSTEM.DIHEDRAL>
0

>  <SCORE.SYSTEM.SOLV>
0

>  <SCORE.SYSTEM.norm>
0

>  <SCORE.heavy>
26

>  <SCORE.norm>
-0.571743

>  <RMSD>
2.900

$$$$
ligand
 OpenBabel11021811423D
libRbt.so/2013.1/901 2013/11/27
 26 27  0  0  0  0  0  0  0  0999 V2000
    4.2851  -16.9560  -88.5913 C   0  0  0  0  0  0  0  0  0  0  0  0
   -0.5402  -15.7610  -93.7143 C   0  0  0  0  0  0  0  0  0  0  0  0
    2.2491  -16.0375  -98.9309 P   0  0  2  0  0  0  0  0  0  0  0  0
    3.7904  -13.8696  -98.1595 P   0  0  2  0  0  0  0  0  0  0  0  0
   -0.7342  -17.7239  -91.2525 C   0  0  0  0  0  0  0  0  0  0  0  0
    1.5294  -16.7223  -91.0702 C   0  0  0  0  0  0  0  0  0  0  0  0
    0.5748  -17.5739  -90.5294 C   0  0  0  0  0  0  0  0  0  0  0  0
    0.8484  -18.2095  -89.3148 C   0  0  0  0  0  0  0  0  0  0  0  0
    0.0057  -19.0363  -88.6949 N   0  0  0  0  0  0  0  0  0  0  0  0
    2.0564  -17.9885  -88.7053 N   0  0  0  0  0  0  0  0  0  0  0  0
    2.9840  -17.1601  -89.2716 C   0  0  0  0  0  0  0  0  0  0  0  0
    2.7399  -16.5181  -90.4433 N   0  0  0  0  0  0  0  0  0  0  0  0
    3.3736  -17.0486  -98.8243 O   0  5  0  0  0  0  0  0  0  0  0  0
    3.9527  -13.0098  -96.9262 O   0  0  0  0  0  0  0  0  0  0  0  0
   -0.5313  -19.5506  -94.7152 S   0  0  0  0  0  0  0  0  0  0  0  0
   -0.6202  -19.3826  -93.0965 C   0  0  0  0  0  0  0  0  0  0  0  0
    2.1411  -15.6708 -100.4087 O   0  0  0  0  0  0  0  0  0  0  0  0
    3.4319  -13.0433  -99.3778 O   0  5  0  0  0  0  0  0  0  0  0  0
   -0.6200  -18.0754  -92.6477 N   0  0  0  0  0  0  0  0  0  0  0  0
    2.5688  -14.8548  -97.8797 O   0  0  0  0  0  0  0  0  0  0  0  0
    5.0857  -14.6221  -98.3871 O   0  0  0  0  0  0  0  0  0  0  0  0
   -0.5482  -17.2379  -93.7335 C   0  0  1  0  0  0  0  0  0  0  0  0
   -0.5000  -17.9685  -94.9311 C   0  0  2  0  0  0  0  0  0  0  0  0
   -0.4333  -17.6113  -96.3955 C   0  0  0  0  0  0  0  0  0  0  0  0
    0.9737  -17.1531  -96.7936 C   0  0  0  0  0  0  0  0  0  0  0  0
    0.9426  -16.6211  -98.1123 O   0  0  0  0  0  0  0  0  0  0  0  0
  1 11  1  0  0  0  0
  3 13  1  1  0  0  0
  3 17  2  0  0  0  0
  3 20  1  0  0  0  0
  3 26  1  0  0  0  0
  4 14  1  1  0  0  0
  4 18  1  0  0  0  0
  4 21  2  0  0  0  0
  4 20  1  0  0  0  0
  5 19  1  0  0  0  0
  5  7  1  0  0  0  0
  6  7  2  0  0  0  0
  6 12  1  0  0  0  0
  7  8  1  0  0  0  0
  8  9  1  0  0  0  0
  8 10  2  0  0  0  0
 10 11  1  0  0  0  0
 11 12  2  0  0  0  0
 15 23  1  0  0  0  0
 15 16  1  0  0  0  0
 16 19  1  0  0  0  0
 19 22  1  0  0  0  0
 22  2  1  6  0  0  0
 22 23  1  0  0  0  0
 23 24  1  6  0  0  0
 24 25  1  0  0  0  0
 25 26  1  0  0  0  0
M  CHG  2  13  -1  18  -1
M  END
>  <CHROM.1>
69.68860839,91.64282790,53.10640569,-172.31110562,-104.43636555,-170.51713360
-179.02665986,48.57289909,1.61956219,-16.62777497,-94.84573655,-1.85657200
-0.68269051,-1.41268973

>  <Name>
ligand

>  <RI>
0

>  <Rbt.Current_Directory>
/home/itssahil/PROJECTS/Mol_Feturizer/New_Systems/rnas/2CKY

>  <Rbt.Executable>
rbdock ($Id: //depot/dev/client3/rdock/2013.1/src/exe/rbdock.cxx#4 $)

>  <Rbt.Library>
libRbt.so (2013.1, Build901 2013/11/27)

>  <Rbt.Parameter_File>
/export/apps/rDock/src/rDock_2013.1_src/data/scripts/dock_solv.prm

>  <Rbt.Receptor>
prm/pocket_docking_3.prm

>  <SCORE>
-15.7758

>  <SCORE.INTER>
-9.66137

>  <SCORE.INTER.CONST>
1

>  <SCORE.INTER.POLAR>
0

>  <SCORE.INTER.ROT>
8

>  <SCORE.INTER.SOLV>
16.1807

>  <SCORE.INTER.VDW>
-20.7678

>  <SCORE.INTER.norm>
-0.371591

>  <SCORE.INTRA>
-6.11442

>  <SCORE.INTRA.DIHEDRAL>
-11.1378

>  <SCORE.INTRA.DIHEDRAL.0>
16.4846

>  <SCORE.INTRA.POLAR>
0

>  <SCORE.INTRA.POLAR.0>
0

>  <SCORE.INTRA.REPUL>
0

>  <SCORE.INTRA.REPUL.0>
0

>  <SCORE.INTRA.SOLV>
1.76869

>  <SCORE.INTRA.SOLV.lig_0>
-82.6983

>  <SCORE.INTRA.VDW>
-1.42985

>  <SCORE.INTRA.VDW.0>
-2.11466

>  <SCORE.INTRA.norm>
-0.23517

>  <SCORE.RESTR>
0

>  <SCORE.RESTR.CAVITY>
0

>  <SCORE.RESTR.norm>
0

>  <SCORE.SYSTEM>
0

>  <SCORE.SYSTEM.CONST>
0

>  <SCORE.SYSTEM.DIHEDRAL>
0

>  <SCORE.SYSTEM.SOLV>
0

>  <SCORE.SYSTEM.norm>
0

>  <SCORE.heavy>
26

>  <SCORE.norm>
-0.606761

>  <RMSD>
2.907

$$$$
ligand
 OpenBabel11021811423D
libRbt.so/2013.1/901 2013/11/27
 26 27  0  0  0  0  0  0  0  0999 V2000
   -0.0236  -19.1327  -86.1264 C   0  0  0  0  0  0  0  0  0  0  0  0
    2.8727  -17.3094  -94.0067 C   0  0  0  0  0  0  0  0  0  0  0  0
   -0.4047  -18.1083  -97.1209 P   0  0  2  0  0  0  0  0  0  0  0  0
    1.6111  -17.7015  -98.9760 P   0  0  2  0  0  0  0  0  0  0  0  0
    2.7293  -17.4293  -90.8577 C   0  0  0  0  0  0  0  0  0  0  0  0
    2.5284  -17.6731  -88.3959 C   0  0  0  0  0  0  0  0  0  0  0  0
    1.9806  -17.9160  -89.6488 C   0  0  0  0  0  0  0  0  0  0  0  0
    0.7375  -18.5502  -89.7302 C   0  0  0  0  0  0  0  0  0  0  0  0
    0.1089  -18.8235  -90.8738 N   0  0  0  0  0  0  0  0  0  0  0  0
    0.1073  -18.9301  -88.5735 N   0  0  0  0  0  0  0  0  0  0  0  0
    0.6803  -18.6951  -87.3554 C   0  0  0  0  0  0  0  0  0  0  0  0
    1.8800  -18.0680  -87.2453 N   0  0  0  0  0  0  0  0  0  0  0  0
   -0.8405  -19.2068  -96.1715 O   0  5  0  0  0  0  0  0  0  0  0  0
    2.5315  -18.5843  -99.7886 O   0  0  0  0  0  0  0  0  0  0  0  0
    0.3587  -14.7401  -92.4441 S   0  0  0  0  0  0  0  0  0  0  0  0
    1.0700  -15.6311  -91.2795 C   0  0  0  0  0  0  0  0  0  0  0  0
   -1.6297  -17.7570  -97.9610 O   0  0  0  0  0  0  0  0  0  0  0  0
    2.3769  -16.6320  -98.2242 O   0  5  0  0  0  0  0  0  0  0  0  0
    1.9699  -16.5744  -91.7384 N   0  0  0  0  0  0  0  0  0  0  0  0
    0.9132  -18.6360  -97.8894 O   0  0  0  0  0  0  0  0  0  0  0  0
    0.6026  -17.0742  -99.9168 O   0  0  0  0  0  0  0  0  0  0  0  0
    2.0273  -16.4973  -93.1082 C   0  0  1  0  0  0  0  0  0  0  0  0
    1.1672  -15.4996  -93.5932 C   0  0  2  0  0  0  0  0  0  0  0  0
    0.8253  -14.9592  -94.9598 C   0  0  0  0  0  0  0  0  0  0  0  0
   -0.2407  -15.8187  -95.6479 C   0  0  0  0  0  0  0  0  0  0  0  0
    0.3792  -16.9474  -96.2518 O   0  0  0  0  0  0  0  0  0  0  0  0
  1 11  1  0  0  0  0
  3 13  1  1  0  0  0
  3 17  2  0  0  0  0
  3 20  1  0  0  0  0
  3 26  1  0  0  0  0
  4 14  1  6  0  0  0
  4 18  1  0  0  0  0
  4 21  2  0  0  0  0
  4 20  1  0  0  0  0
  5 19  1  0  0  0  0
  5  7  1  0  0  0  0
  6  7  2  0  0  0  0
  6 12  1  0  0  0  0
  7  8  1  0  0  0  0
  8  9  1  0  0  0  0
  8 10  2  0  0  0  0
 10 11  1  0  0  0  0
 11 12  2  0  0  0  0
 15 23  1  0  0  0  0
 15 16  1  0  0  0  0
 16 19  1  0  0  0  0
 19 22  1  0  0  0  0
 22  2  1  1  0  0  0
 22 23  1  0  0  0  0
 23 24  1  1  0  0  0
 24 25  1  0  0  0  0
 25 26  1  0  0  0  0
M  CHG  2  13  -1  18  -1
M  END
>  <CHROM.1>
179.50746072,38.06441076,-124.74542816,-163.86087802,-96.91539239,-82.19739326
-178.67147403,-90.11474487,0.92496218,-17.36744840,-93.95542925,1.48812225
1.20320930,1.67979833

>  <Name>
ligand

>  <RI>
0

>  <Rbt.Current_Directory>
/home/itssahil/PROJECTS/Mol_Feturizer/New_Systems/rnas/2CKY

>  <Rbt.Executable>
rbdock ($Id: //depot/dev/client3/rdock/2013.1/src/exe/rbdock.cxx#4 $)

>  <Rbt.Library>
libRbt.so (2013.1, Build901 2013/11/27)

>  <Rbt.Parameter_File>
/export/apps/rDock/src/rDock_2013.1_src/data/scripts/dock_solv.prm

>  <Rbt.Receptor>
prm/pocket_docking_4.prm

>  <SCORE>
-20.898

>  <SCORE.INTER>
-15.979

>  <SCORE.INTER.CONST>
1

>  <SCORE.INTER.POLAR>
0

>  <SCORE.INTER.ROT>
8

>  <SCORE.INTER.SOLV>
11.1763

>  <SCORE.INTER.VDW>
-23.3114

>  <SCORE.INTER.norm>
-0.614577

>  <SCORE.INTRA>
-4.91897

>  <SCORE.INTRA.DIHEDRAL>
-8.69949

>  <SCORE.INTRA.DIHEDRAL.0>
16.4846

>  <SCORE.INTRA.POLAR>
0

>  <SCORE.INTRA.POLAR.0>
0

>  <SCORE.INTRA.REPUL>
0

>  <SCORE.INTRA.REPUL.0>
0

>  <SCORE.INTRA.SOLV>
3.63091

>  <SCORE.INTRA.SOLV.lig_0>
-82.6983

>  <SCORE.INTRA.VDW>
-2.38468

>  <SCORE.INTRA.VDW.0>
-2.11466

>  <SCORE.INTRA.norm>
-0.189191

>  <SCORE.RESTR>
0

>  <SCORE.RESTR.CAVITY>
0

>  <SCORE.RESTR.norm>
0

>  <SCORE.SYSTEM>
0

>  <SCORE.SYSTEM.CONST>
0

>  <SCORE.SYSTEM.DIHEDRAL>
0

>  <SCORE.SYSTEM.SOLV>
0

>  <SCORE.SYSTEM.norm>
0

>  <SCORE.heavy>
26

>  <SCORE.norm>
-0.803768

>  <RMSD>
2.907

$$$$
ligand
 OpenBabel11021811423D
libRbt.so/2013.1/901 2013/11/27
 26 27  0  0  0  0  0  0  0  0999 V2000
    0.1639  -19.3034  -86.0938 C   0  0  0  0  0  0  0  0  0  0  0  0
    2.5468  -17.6264  -93.9919 C   0  0  0  0  0  0  0  0  0  0  0  0
   -2.3120  -15.5917  -96.7935 P   0  0  2  0  0  0  0  0  0  0  0  0
   -1.9810  -13.2333  -98.2074 P   0  0  2  0  0  0  0  0  0  0  0  0
    1.4796  -16.8784  -91.1191 C   0  0  0  0  0  0  0  0  0  0  0  0
   -0.1123  -17.9371  -89.5362 C   0  0  0  0  0  0  0  0  0  0  0  0
    1.1789  -17.4858  -89.7777 C   0  0  0  0  0  0  0  0  0  0  0  0
    2.1516  -17.6639  -88.7896 C   0  0  0  0  0  0  0  0  0  0  0  0
    3.4237  -17.2843  -88.9130 N   0  0  0  0  0  0  0  0  0  0  0  0
    1.7973  -18.2598  -87.6068 N   0  0  0  0  0  0  0  0  0  0  0  0
    0.5139  -18.6760  -87.3905 C   0  0  0  0  0  0  0  0  0  0  0  0
   -0.4484  -18.5292  -88.3377 N   0  0  0  0  0  0  0  0  0  0  0  0
   -3.1459  -16.1823  -97.9133 O   0  5  0  0  0  0  0  0  0  0  0  0
   -0.8749  -12.5953  -99.0175 O   0  0  0  0  0  0  0  0  0  0  0  0
   -1.2935  -18.2556  -93.5235 S   0  0  0  0  0  0  0  0  0  0  0  0
   -0.6332  -17.6761  -92.1509 C   0  0  0  0  0  0  0  0  0  0  0  0
   -3.2972  -15.1313  -95.7224 O   0  0  0  0  0  0  0  0  0  0  0  0
   -2.5143  -12.2933  -97.1456 O   0  5  0  0  0  0  0  0  0  0  0  0
    0.7253  -17.4314  -92.2185 N   0  0  0  0  0  0  0  0  0  0  0  0
   -1.3411  -14.4840  -97.4541 O   0  0  0  0  0  0  0  0  0  0  0  0
   -3.0863  -13.6477  -99.1574 O   0  0  0  0  0  0  0  0  0  0  0  0
    1.1673  -17.7506  -93.4788 C   0  0  1  0  0  0  0  0  0  0  0  0
    0.1123  -18.2145  -94.2802 C   0  0  2  0  0  0  0  0  0  0  0  0
   -0.0146  -18.6822  -95.7091 C   0  0  0  0  0  0  0  0  0  0  0  0
   -1.2429  -18.0681  -96.3891 C   0  0  0  0  0  0  0  0  0  0  0  0
   -1.1055  -16.6529  -96.4251 O   0  0  0  0  0  0  0  0  0  0  0  0
  1 11  1  0  0  0  0
  3 13  1  6  0  0  0
  3 17  2  0  0  0  0
  3 20  1  0  0  0  0
  3 26  1  0  0  0  0
  4 14  1  6  0  0  0
  4 18  1  0  0  0  0
  4 21  2  0  0  0  0
  4 20  1  0  0  0  0
  5 19  1  0  0  0  0
  5  7  1  0  0  0  0
  6  7  2  0  0  0  0
  6 12  1  0  0  0  0
  7  8  1  0  0  0  0
  8  9  1  0  0  0  0
  8 10  2  0  0  0  0
 10 11  1  0  0  0  0
 11 12  2  0  0  0  0
 15 23  1  0  0  0  0
 15 16  1  0  0  0  0
 16 19  1  0  0  0  0
 19 22  1  0  0  0  0
 22  2  1  6  0  0  0
 22 23  1  0  0  0  0
 23 24  1  6  0  0  0
 24 25  1  0  0  0  0
 25 26  1  0  0  0  0
M  CHG  2  13  -1  18  -1
M  END
>  <CHROM.1>
60.55116710,44.72591885,-32.21626129,-165.17038399,44.49740329,61.92586899
-167.30151090,-38.80990496,-0.59009533,-16.51869209,-93.90568151,0.85658379
1.07834845,2.63687819

>  <Name>
ligand

>  <RI>
0

>  <Rbt.Current_Directory>
/home/itssahil/PROJECTS/Mol_Feturizer/New_Systems/rnas/2CKY

>  <Rbt.Executable>
rbdock ($Id: //depot/dev/client3/rdock/2013.1/src/exe/rbdock.cxx#4 $)

>  <Rbt.Library>
libRbt.so (2013.1, Build901 2013/11/27)

>  <Rbt.Parameter_File>
/export/apps/rDock/src/rDock_2013.1_src/data/scripts/dock_solv.prm

>  <Rbt.Receptor>
prm/pocket_docking_4.prm

>  <SCORE>
-19.2233

>  <SCORE.INTER>
-17.2818

>  <SCORE.INTER.CONST>
1

>  <SCORE.INTER.POLAR>
0

>  <SCORE.INTER.ROT>
8

>  <SCORE.INTER.SOLV>
22.0843

>  <SCORE.INTER.VDW>
-27.816

>  <SCORE.INTER.norm>
-0.664684

>  <SCORE.INTRA>
-1.94148

>  <SCORE.INTRA.DIHEDRAL>
-9.28833

>  <SCORE.INTRA.DIHEDRAL.0>
16.4846

>  <SCORE.INTRA.POLAR>
0

>  <SCORE.INTRA.POLAR.0>
0

>  <SCORE.INTRA.REPUL>
0

>  <SCORE.INTRA.REPUL.0>
0

>  <SCORE.INTRA.SOLV>
1.80953

>  <SCORE.INTRA.SOLV.lig_0>
-82.6983

>  <SCORE.INTRA.VDW>
1.79792

>  <SCORE.INTRA.VDW.0>
-2.11466

>  <SCORE.INTRA.norm>
-0.0746723

>  <SCORE.RESTR>
0

>  <SCORE.RESTR.CAVITY>
0

>  <SCORE.RESTR.norm>
0

>  <SCORE.SYSTEM>
0

>  <SCORE.SYSTEM.CONST>
0

>  <SCORE.SYSTEM.DIHEDRAL>
0

>  <SCORE.SYSTEM.SOLV>
0

>  <SCORE.SYSTEM.norm>
0

>  <SCORE.heavy>
26

>  <SCORE.norm>
-0.739357

>  <RMSD>
2.912

$$$$
ligand
 OpenBabel11021811423D
libRbt.so/2013.1/901 2013/11/27
 26 27  0  0  0  0  0  0  0  0999 V2000
    3.0343  -17.4304  -88.1291 C   0  0  0  0  0  0  0  0  0  0  0  0
   -0.5994  -19.6823  -95.6326 C   0  0  0  0  0  0  0  0  0  0  0  0
    1.8231  -17.0362  -98.5875 P   0  0  2  0  0  0  0  0  0  0  0  0
    4.2362  -16.2356  -97.4892 P   0  0  2  0  0  0  0  0  0  0  0  0
   -0.0714  -19.3756  -92.5377 C   0  0  0  0  0  0  0  0  0  0  0  0
    0.3354  -19.0345  -90.1131 C   0  0  0  0  0  0  0  0  0  0  0  0
    0.7659  -18.8261  -91.4171 C   0  0  0  0  0  0  0  0  0  0  0  0
    1.9798  -18.1662  -91.6294 C   0  0  0  0  0  0  0  0  0  0  0  0
    2.4994  -17.9214  -92.8327 N   0  0  0  0  0  0  0  0  0  0  0  0
    2.6974  -17.7282  -90.5466 N   0  0  0  0  0  0  0  0  0  0  0  0
    2.2386  -17.9305  -89.2755 C   0  0  0  0  0  0  0  0  0  0  0  0
    1.0702  -18.5812  -89.0385 N   0  0  0  0  0  0  0  0  0  0  0  0
    2.1306  -18.3473  -99.2837 O   0  5  0  0  0  0  0  0  0  0  0  0
    4.9030  -16.8949  -98.6755 O   0  0  0  0  0  0  0  0  0  0  0  0
   -1.4723  -16.1282  -94.2291 S   0  0  0  0  0  0  0  0  0  0  0  0
   -0.9315  -17.1008  -93.0384 C   0  0  0  0  0  0  0  0  0  0  0  0
    1.9135  -15.9513  -99.6574 O   0  0  0  0  0  0  0  0  0  0  0  0
    5.0095  -16.4700  -96.2075 O   0  5  0  0  0  0  0  0  0  0  0  0
   -0.6060  -18.3829  -93.4389 N   0  0  0  0  0  0  0  0  0  0  0  0
    2.8109  -16.9278  -97.3153 O   0  0  0  0  0  0  0  0  0  0  0  0
    4.1158  -14.7527  -97.7763 O   0  0  0  0  0  0  0  0  0  0  0  0
   -0.8302  -18.4918  -94.7893 C   0  0  1  0  0  0  0  0  0  0  0  0
   -1.3095  -17.2837  -95.3195 C   0  0  2  0  0  0  0  0  0  0  0  0
   -1.7052  -16.8061  -96.6949 C   0  0  0  0  0  0  0  0  0  0  0  0
   -0.5090  -16.2067  -97.4419 C   0  0  0  0  0  0  0  0  0  0  0  0
    0.4482  -17.2270  -97.6982 O   0  0  0  0  0  0  0  0  0  0  0  0
  1 11  1  0  0  0  0
  3 13  1  6  0  0  0
  3 17  2  0  0  0  0
  3 20  1  0  0  0  0
  3 26  1  0  0  0  0
  4 14  1  6  0  0  0
  4 18  1  0  0  0  0
  4 21  2  0  0  0  0
  4 20  1  0  0  0  0
  5 19  1  0  0  0  0
  5  7  1  0  0  0  0
  6  7  2  0  0  0  0
  6 12  1  0  0  0  0
  7  8  1  0  0  0  0
  8  9  1  0  0  0  0
  8 10  2  0  0  0  0
 10 11  1  0  0  0  0
 11 12  2  0  0  0  0
 15 23  1  0  0  0  0
 15 16  1  0  0  0  0
 16 19  1  0  0  0  0
 19 22  1  0  0  0  0
 22  2  1  6  0  0  0
 22 23  1  0  0  0  0
 23 24  1  6  0  0  0
 24 25  1  0  0  0  0
 25 26  1  0  0  0  0
M  CHG  2  13  -1  18  -1
M  END
>  <CHROM.1>
89.93013923,-30.94180145,118.04112187,-51.40785758,89.74628750,65.79489181
174.64507831,-147.93450233,1.41688686,-17.32424858,-95.01839150,-1.76728747
-0.14494119,-1.40144651

>  <Name>
ligand

>  <RI>
0

>  <Rbt.Current_Directory>
/home/itssahil/PROJECTS/Mol_Feturizer/New_Systems/rnas/2CKY

>  <Rbt.Executable>
rbdock ($Id: //depot/dev/client3/rdock/2013.1/src/exe/rbdock.cxx#4 $)

>  <Rbt.Library>
libRbt.so (2013.1, Build901 2013/11/27)

>  <Rbt.Parameter_File>
/export/apps/rDock/src/rDock_2013.1_src/data/scripts/dock_solv.prm

>  <Rbt.Receptor>
prm/pocket_docking_8.prm

>  <SCORE>
-18.0155

>  <SCORE.INTER>
-12.2844

>  <SCORE.INTER.CONST>
1

>  <SCORE.INTER.POLAR>
0

>  <SCORE.INTER.ROT>
8

>  <SCORE.INTER.SOLV>
15.9081

>  <SCORE.INTER.VDW>
-22.4257

>  <SCORE.INTER.norm>
-0.472478

>  <SCORE.INTRA>
-5.73107

>  <SCORE.INTRA.DIHEDRAL>
-8.57062

>  <SCORE.INTRA.DIHEDRAL.0>
16.4846

>  <SCORE.INTRA.POLAR>
0

>  <SCORE.INTRA.POLAR.0>
0

>  <SCORE.INTRA.REPUL>
0

>  <SCORE.INTRA.REPUL.0>
0

>  <SCORE.INTRA.SOLV>
1.08404

>  <SCORE.INTRA.SOLV.lig_0>
-82.6983

>  <SCORE.INTRA.VDW>
-1.98778

>  <SCORE.INTRA.VDW.0>
-2.11466

>  <SCORE.INTRA.norm>
-0.220426

>  <SCORE.RESTR>
0

>  <SCORE.RESTR.CAVITY>
0

>  <SCORE.RESTR.norm>
0

>  <SCORE.SYSTEM>
0

>  <SCORE.SYSTEM.CONST>
0

>  <SCORE.SYSTEM.DIHEDRAL>
0

>  <SCORE.SYSTEM.SOLV>
0

>  <SCORE.SYSTEM.norm>
0

>  <SCORE.heavy>
26

>  <SCORE.norm>
-0.692904

>  <RMSD>
2.915

$$$$
ligand
 OpenBabel11021811423D
libRbt.so/2013.1/901 2013/11/27
 26 27  0  0  0  0  0  0  0  0999 V2000
    0.8453  -18.9800  -87.0774 C   0  0  0  0  0  0  0  0  0  0  0  0
    2.7242  -14.8133  -93.6172 C   0  0  0  0  0  0  0  0  0  0  0  0
    1.5326  -15.5911  -99.0159 P   0  0  2  0  0  0  0  0  0  0  0  0
    0.7919  -12.9274  -99.1793 P   0  0  2  0  0  0  0  0  0  0  0  0
    0.3533  -16.2035  -92.0688 C   0  0  0  0  0  0  0  0  0  0  0  0
    1.6700  -17.0566  -90.1455 C   0  0  0  0  0  0  0  0  0  0  0  0
    0.4349  -16.9616  -90.7736 C   0  0  0  0  0  0  0  0  0  0  0  0
   -0.6833  -17.5243  -90.1515 C   0  0  0  0  0  0  0  0  0  0  0  0
   -1.9186  -17.4844  -90.6516 N   0  0  0  0  0  0  0  0  0  0  0  0
   -0.5236  -18.1688  -88.9521 N   0  0  0  0  0  0  0  0  0  0  0  0
    0.7080  -18.2632  -88.3677 C   0  0  0  0  0  0  0  0  0  0  0  0
    1.8093  -17.7136  -88.9418 N   0  0  0  0  0  0  0  0  0  0  0  0
    2.6327  -15.4083 -100.0427 O   0  5  0  0  0  0  0  0  0  0  0  0
   -0.4275  -13.3996  -99.9388 O   0  0  0  0  0  0  0  0  0  0  0  0
    1.8865  -18.4136  -94.9207 S   0  0  0  0  0  0  0  0  0  0  0  0
    0.9120  -18.0096  -93.6784 C   0  0  0  0  0  0  0  0  0  0  0  0
    0.3561  -16.2220  -99.7560 O   0  0  0  0  0  0  0  0  0  0  0  0
    1.9215  -12.5423 -100.1128 O   0  5  0  0  0  0  0  0  0  0  0  0
    1.1407  -16.7551  -93.1455 N   0  0  0  0  0  0  0  0  0  0  0  0
    1.2995  -14.1603  -98.3056 O   0  0  0  0  0  0  0  0  0  0  0  0
    0.3869  -11.7492  -98.3170 O   0  0  0  0  0  0  0  0  0  0  0  0
    2.1659  -16.1624  -93.8405 C   0  0  1  0  0  0  0  0  0  0  0  0
    2.6431  -17.0087  -94.8537 C   0  0  2  0  0  0  0  0  0  0  0  0
    3.7096  -16.9036  -95.9158 C   0  0  0  0  0  0  0  0  0  0  0  0
    3.3312  -15.8732  -96.9851 C   0  0  0  0  0  0  0  0  0  0  0  0
    2.1764  -16.3199  -97.6848 O   0  0  0  0  0  0  0  0  0  0  0  0
  1 11  1  0  0  0  0
  3 13  1  6  0  0  0
  3 17  2  0  0  0  0
  3 20  1  0  0  0  0
  3 26  1  0  0  0  0
  4 14  1  6  0  0  0
  4 18  1  0  0  0  0
  4 21  2  0  0  0  0
  4 20  1  0  0  0  0
  5 19  1  0  0  0  0
  5  7  1  0  0  0  0
  6  7  2  0  0  0  0
  6 12  1  0  0  0  0
  7  8  1  0  0  0  0
  8  9  1  0  0  0  0
  8 10  2  0  0  0  0
 10 11  1  0  0  0  0
 11 12  2  0  0  0  0
 15 23  1  0  0  0  0
 15 16  1  0  0  0  0
 16 19  1  0  0  0  0
 19 22  1  0  0  0  0
 22  2  1  6  0  0  0
 22 23  1  0  0  0  0
 23 24  1  6  0  0  0
 24 25  1  0  0  0  0
 25 26  1  0  0  0  0
M  CHG  2  13  -1  18  -1
M  END
>  <CHROM.1>
62.95804663,63.01856102,62.22848899,51.08973361,111.09905339,-65.06322862
-173.15469579,52.12298128,1.25471233,-16.02096108,-95.10162689,1.67788112
-0.86912076,2.02579412

>  <Name>
ligand

>  <RI>
0

>  <Rbt.Current_Directory>
/home/itssahil/PROJECTS/Mol_Feturizer/New_Systems/rnas/2CKY

>  <Rbt.Executable>
rbdock ($Id: //depot/dev/client3/rdock/2013.1/src/exe/rbdock.cxx#4 $)

>  <Rbt.Library>
libRbt.so (2013.1, Build901 2013/11/27)

>  <Rbt.Parameter_File>
/export/apps/rDock/src/rDock_2013.1_src/data/scripts/dock_solv.prm

>  <Rbt.Receptor>
prm/pocket_docking_4.prm

>  <SCORE>
-13.9612

>  <SCORE.INTER>
-6.83231

>  <SCORE.INTER.CONST>
1

>  <SCORE.INTER.POLAR>
0

>  <SCORE.INTER.ROT>
8

>  <SCORE.INTER.SOLV>
17.5734

>  <SCORE.INTER.VDW>
-19.346

>  <SCORE.INTER.norm>
-0.262781

>  <SCORE.INTRA>
-7.253

>  <SCORE.INTRA.DIHEDRAL>
-11.3437

>  <SCORE.INTRA.DIHEDRAL.0>
16.4846

>  <SCORE.INTRA.POLAR>
0

>  <SCORE.INTRA.POLAR.0>
0

>  <SCORE.INTRA.REPUL>
0

>  <SCORE.INTRA.REPUL.0>
0

>  <SCORE.INTRA.SOLV>
0.0551739

>  <SCORE.INTRA.SOLV.lig_0>
-82.6983

>  <SCORE.INTRA.VDW>
-1.60872

>  <SCORE.INTRA.VDW.0>
-2.11466

>  <SCORE.INTRA.norm>
-0.278962

>  <SCORE.RESTR>
0.124162

>  <SCORE.RESTR.CAVITY>
0.124162

>  <SCORE.RESTR.norm>
0.00477547

>  <SCORE.SYSTEM>
0

>  <SCORE.SYSTEM.CONST>
0

>  <SCORE.SYSTEM.DIHEDRAL>
0

>  <SCORE.SYSTEM.SOLV>
0

>  <SCORE.SYSTEM.norm>
0

>  <SCORE.heavy>
26

>  <SCORE.norm>
-0.536967

>  <RMSD>
2.925

$$$$
ligand
 OpenBabel11021811423D
libRbt.so/2013.1/901 2013/11/27
 26 27  0  0  0  0  0  0  0  0999 V2000
    0.7431  -18.5944  -87.0055 C   0  0  0  0  0  0  0  0  0  0  0  0
   -0.8820  -18.0268  -93.9358 C   0  0  0  0  0  0  0  0  0  0  0  0
   -2.5336  -12.7699  -97.1158 P   0  0  2  0  0  0  0  0  0  0  0  0
   -0.4166  -11.0107  -97.4230 P   0  0  2  0  0  0  0  0  0  0  0  0
    1.7967  -17.2295  -92.4729 C   0  0  0  0  0  0  0  0  0  0  0  0
    0.3595  -18.1550  -90.6733 C   0  0  0  0  0  0  0  0  0  0  0  0
    1.5580  -17.5465  -91.0233 C   0  0  0  0  0  0  0  0  0  0  0  0
    2.5085  -17.3058  -90.0269 C   0  0  0  0  0  0  0  0  0  0  0  0
    3.6965  -16.7412  -90.2450 N   0  0  0  0  0  0  0  0  0  0  0  0
    2.2212  -17.6591  -88.7338 N   0  0  0  0  0  0  0  0  0  0  0  0
    1.0250  -18.2387  -88.4167 C   0  0  0  0  0  0  0  0  0  0  0  0
    0.0888  -18.4977  -89.3659 N   0  0  0  0  0  0  0  0  0  0  0  0
   -3.7563  -13.1182  -97.9415 O   0  5  0  0  0  0  0  0  0  0  0  0
   -1.1478   -9.9651  -96.6113 O   0  0  0  0  0  0  0  0  0  0  0  0
   -0.2120  -14.1655  -93.8674 S   0  0  0  0  0  0  0  0  0  0  0  0
    0.9809  -14.9706  -93.1027 C   0  0  0  0  0  0  0  0  0  0  0  0
   -3.0492  -12.0734  -95.8592 O   0  0  0  0  0  0  0  0  0  0  0  0
    0.3719  -10.3909  -98.5586 O   0  5  0  0  0  0  0  0  0  0  0  0
    0.8253  -16.3435  -93.0683 N   0  0  0  0  0  0  0  0  0  0  0  0
   -1.5268  -11.9504  -98.0754 O   0  0  0  0  0  0  0  0  0  0  0  0
    0.5007  -11.7777  -96.4924 O   0  0  0  0  0  0  0  0  0  0  0  0
   -0.3380  -16.6705  -93.7205 C   0  0  1  0  0  0  0  0  0  0  0  0
   -0.9836  -15.5223  -94.2056 C   0  0  2  0  0  0  0  0  0  0  0  0
   -2.2462  -15.2602  -94.9889 C   0  0  0  0  0  0  0  0  0  0  0  0
   -1.9993  -15.3720  -96.4971 C   0  0  0  0  0  0  0  0  0  0  0  0
   -1.5805  -14.1102  -97.0026 O   0  0  0  0  0  0  0  0  0  0  0  0
  1 11  1  0  0  0  0
  3 13  1  6  0  0  0
  3 17  2  0  0  0  0
  3 20  1  0  0  0  0
  3 26  1  0  0  0  0
  4 14  1  1  0  0  0
  4 18  1  0  0  0  0
  4 21  2  0  0  0  0
  4 20  1  0  0  0  0
  5 19  1  0  0  0  0
  5  7  1  0  0  0  0
  6  7  2  0  0  0  0
  6 12  1  0  0  0  0
  7  8  1  0  0  0  0
  8  9  1  0  0  0  0
  8 10  2  0  0  0  0
 10 11  1  0  0  0  0
 11 12  2  0  0  0  0
 15 23  1  0  0  0  0
 15 16  1  0  0  0  0
 16 19  1  0  0  0  0
 19 22  1  0  0  0  0
 22  2  1  6  0  0  0
 22 23  1  0  0  0  0
 23 24  1  6  0  0  0
 24 25  1  0  0  0  0
 25 26  1  0  0  0  0
M  CHG  2  13  -1  18  -1
M  END
>  <CHROM.1>
158.57438667,91.70072023,59.44193472,-60.38619727,93.91526926,-88.13223684
-69.00961711,-56.32720178,-0.33602633,-14.67717993,-94.17646886,1.23221519
0.55586242,2.41996352

>  <Name>
ligand

>  <RI>
0

>  <Rbt.Current_Directory>
/home/itssahil/PROJECTS/Mol_Feturizer/New_Systems/rnas/2CKY

>  <Rbt.Executable>
rbdock ($Id: //depot/dev/client3/rdock/2013.1/src/exe/rbdock.cxx#4 $)

>  <Rbt.Library>
libRbt.so (2013.1, Build901 2013/11/27)

>  <Rbt.Parameter_File>
/export/apps/rDock/src/rDock_2013.1_src/data/scripts/dock_solv.prm

>  <Rbt.Receptor>
prm/pocket_docking_6.prm

>  <SCORE>
-19.4916

>  <SCORE.INTER>
-13.375

>  <SCORE.INTER.CONST>
1

>  <SCORE.INTER.POLAR>
0

>  <SCORE.INTER.ROT>
8

>  <SCORE.INTER.SOLV>
15.7508

>  <SCORE.INTER.VDW>
-23.1002

>  <SCORE.INTER.norm>
-0.514422

>  <SCORE.INTRA>
-6.1166

>  <SCORE.INTRA.DIHEDRAL>
-7.7739

>  <SCORE.INTRA.DIHEDRAL.0>
16.4846

>  <SCORE.INTRA.POLAR>
0

>  <SCORE.INTRA.POLAR.0>
0

>  <SCORE.INTRA.REPUL>
0

>  <SCORE.INTRA.REPUL.0>
0

>  <SCORE.INTRA.SOLV>
0.638493

>  <SCORE.INTRA.SOLV.lig_0>
-82.6983

>  <SCORE.INTRA.VDW>
-2.5489

>  <SCORE.INTRA.VDW.0>
-2.11466

>  <SCORE.INTRA.norm>
-0.235254

>  <SCORE.RESTR>
0

>  <SCORE.RESTR.CAVITY>
0

>  <SCORE.RESTR.norm>
0

>  <SCORE.SYSTEM>
0

>  <SCORE.SYSTEM.CONST>
0

>  <SCORE.SYSTEM.DIHEDRAL>
0

>  <SCORE.SYSTEM.SOLV>
0

>  <SCORE.SYSTEM.norm>
0

>  <SCORE.heavy>
26

>  <SCORE.norm>
-0.749676

>  <RMSD>
2.928

$$$$
ligand
 OpenBabel11021811423D
libRbt.so/2013.1/901 2013/11/27
 26 27  0  0  0  0  0  0  0  0999 V2000
   -0.2231  -19.1387  -85.9902 C   0  0  0  0  0  0  0  0  0  0  0  0
    1.4121  -15.5129  -92.8878 C   0  0  0  0  0  0  0  0  0  0  0  0
    3.6607  -15.7865  -97.1506 P   0  0  2  0  0  0  0  0  0  0  0  0
    3.0929  -14.3661  -99.4594 P   0  0  2  0  0  0  0  0  0  0  0  0
    2.6456  -17.3026  -90.6015 C   0  0  0  0  0  0  0  0  0  0  0  0
    2.4991  -17.9157  -88.2009 C   0  0  0  0  0  0  0  0  0  0  0  0
    1.8566  -17.8110  -89.4278 C   0  0  0  0  0  0  0  0  0  0  0  0
    0.4975  -18.1288  -89.5068 C   0  0  0  0  0  0  0  0  0  0  0  0
   -0.2259  -18.0541  -90.6243 N   0  0  0  0  0  0  0  0  0  0  0  0
   -0.1537  -18.5521  -88.3772 N   0  0  0  0  0  0  0  0  0  0  0  0
    0.5100  -18.6640  -87.1880 C   0  0  0  0  0  0  0  0  0  0  0  0
    1.8265  -18.3483  -87.0782 N   0  0  0  0  0  0  0  0  0  0  0  0
    4.5263  -14.7990  -96.3931 O   0  5  0  0  0  0  0  0  0  0  0  0
    4.4576  -13.7468  -99.2577 O   0  0  0  0  0  0  0  0  0  0  0  0
    1.5157  -19.3330  -93.7589 S   0  0  0  0  0  0  0  0  0  0  0  0
    2.1488  -19.0618  -92.2818 C   0  0  0  0  0  0  0  0  0  0  0  0
    4.6186  -16.7282  -97.8754 O   0  0  0  0  0  0  0  0  0  0  0  0
    2.0684  -13.3390  -99.8966 O   0  5  0  0  0  0  0  0  0  0  0  0
    2.1630  -17.7362  -91.8909 N   0  0  0  0  0  0  0  0  0  0  0  0
    2.6251  -14.9276  -98.0427 O   0  0  0  0  0  0  0  0  0  0  0  0
    3.2194  -15.4671 -100.4926 O   0  0  0  0  0  0  0  0  0  0  0  0
    1.6109  -16.9765  -92.8927 C   0  0  1  0  0  0  0  0  0  0  0  0
    1.2152  -17.7793  -93.9741 C   0  0  2  0  0  0  0  0  0  0  0  0
    0.5564  -17.5226  -95.3069 C   0  0  0  0  0  0  0  0  0  0  0  0
    1.5940  -17.4136  -96.4293 C   0  0  0  0  0  0  0  0  0  0  0  0
    2.5195  -16.3791  -96.1191 O   0  0  0  0  0  0  0  0  0  0  0  0
  1 11  1  0  0  0  0
  3 13  1  1  0  0  0
  3 17  2  0  0  0  0
  3 20  1  0  0  0  0
  3 26  1  0  0  0  0
  4 14  1  1  0  0  0
  4 18  1  0  0  0  0
  4 21  2  0  0  0  0
  4 20  1  0  0  0  0
  5 19  1  0  0  0  0
  5  7  1  0  0  0  0
  6  7  2  0  0  0  0
  6 12  1  0  0  0  0
  7  8  1  0  0  0  0
  8  9  1  0  0  0  0
  8 10  2  0  0  0  0
 10 11  1  0  0  0  0
 11 12  2  0  0  0  0
 15 23  1  0  0  0  0
 15 16  1  0  0  0  0
 16 19  1  0  0  0  0
 19 22  1  0  0  0  0
 22  2  1  1  0  0  0
 22 23  1  0  0  0  0
 23 24  1  1  0  0  0
 24 25  1  0  0  0  0
 25 26  1  0  0  0  0
M  CHG  2  13  -1  18  -1
M  END
>  <CHROM.1>
83.23713769,-63.66238503,154.62036381,-46.19582778,-83.85716811,-57.34924060
-170.74023700,-174.39377690,2.15705979,-16.80590762,-94.14496971,-1.94180266
-0.93456056,-1.53821357

>  <Name>
ligand

>  <RI>
0

>  <Rbt.Current_Directory>
/home/itssahil/PROJECTS/Mol_Feturizer/New_Systems/rnas/2CKY

>  <Rbt.Executable>
rbdock ($Id: //depot/dev/client3/rdock/2013.1/src/exe/rbdock.cxx#4 $)

>  <Rbt.Library>
libRbt.so (2013.1, Build901 2013/11/27)

>  <Rbt.Parameter_File>
/export/apps/rDock/src/rDock_2013.1_src/data/scripts/dock_solv.prm

>  <Rbt.Receptor>
prm/pocket_docking_4.prm

>  <SCORE>
-22.5639

>  <SCORE.INTER>
-17.1146

>  <SCORE.INTER.CONST>
1

>  <SCORE.INTER.POLAR>
0

>  <SCORE.INTER.ROT>
8

>  <SCORE.INTER.SOLV>
14.869

>  <SCORE.INTER.VDW>
-25.2994

>  <SCORE.INTER.norm>
-0.658254

>  <SCORE.INTRA>
-5.45621

>  <SCORE.INTRA.DIHEDRAL>
-10.1064

>  <SCORE.INTRA.DIHEDRAL.0>
16.4846

>  <SCORE.INTRA.POLAR>
0

>  <SCORE.INTRA.POLAR.0>
0

>  <SCORE.INTRA.REPUL>
0

>  <SCORE.INTRA.REPUL.0>
0

>  <SCORE.INTRA.SOLV>
3.45025

>  <SCORE.INTRA.SOLV.lig_0>
-82.6983

>  <SCORE.INTRA.VDW>
-2.12812

>  <SCORE.INTRA.VDW.0>
-2.11466

>  <SCORE.INTRA.norm>
-0.209854

>  <SCORE.RESTR>
0.00689113

>  <SCORE.RESTR.CAVITY>
0.00689113

>  <SCORE.RESTR.norm>
0.000265043

>  <SCORE.SYSTEM>
0

>  <SCORE.SYSTEM.CONST>
0

>  <SCORE.SYSTEM.DIHEDRAL>
0

>  <SCORE.SYSTEM.SOLV>
0

>  <SCORE.SYSTEM.norm>
0

>  <SCORE.heavy>
26

>  <SCORE.norm>
-0.867844

>  <RMSD>
2.932

$$$$
ligand
 OpenBabel11021811423D
libRbt.so/2013.1/901 2013/11/27
 26 27  0  0  0  0  0  0  0  0999 V2000
   -0.3234  -19.4853  -86.2368 C   0  0  0  0  0  0  0  0  0  0  0  0
    3.7104  -16.2747  -93.3493 C   0  0  0  0  0  0  0  0  0  0  0  0
    1.6227  -15.9584  -98.6735 P   0  0  2  0  0  0  0  0  0  0  0  0
    0.3193  -18.1916  -99.6658 P   0  0  2  0  0  0  0  0  0  0  0  0
    2.7214  -17.1058  -90.4714 C   0  0  0  0  0  0  0  0  0  0  0  0
    2.2270  -17.5055  -88.0722 C   0  0  0  0  0  0  0  0  0  0  0  0
    1.9081  -17.7720  -89.3974 C   0  0  0  0  0  0  0  0  0  0  0  0
    0.8165  -18.6000  -89.6752 C   0  0  0  0  0  0  0  0  0  0  0  0
    0.4089  -18.9156  -90.9048 N   0  0  0  0  0  0  0  0  0  0  0  0
    0.1076  -19.1386  -88.6327 N   0  0  0  0  0  0  0  0  0  0  0  0
    0.4574  -18.8739  -87.3386 C   0  0  0  0  0  0  0  0  0  0  0  0
    1.5038  -18.0616  -87.0389 N   0  0  0  0  0  0  0  0  0  0  0  0
    1.0199  -15.0995  -99.7676 O   0  5  0  0  0  0  0  0  0  0  0  0
   -0.4098  -17.3774 -100.7107 O   0  0  0  0  0  0  0  0  0  0  0  0
   -0.0417  -15.3808  -92.6528 S   0  0  0  0  0  0  0  0  0  0  0  0
    0.6241  -16.1182  -91.3608 C   0  0  0  0  0  0  0  0  0  0  0  0
    3.0582  -16.2521  -99.1011 O   0  0  0  0  0  0  0  0  0  0  0  0
   -0.5411  -19.3173  -99.1289 O   0  5  0  0  0  0  0  0  0  0  0  0
    1.9486  -16.4803  -91.5178 N   0  0  0  0  0  0  0  0  0  0  0  0
    0.6296  -17.2110  -98.4479 O   0  0  0  0  0  0  0  0  0  0  0  0
    1.5864  -18.7396 -100.2903 O   0  0  0  0  0  0  0  0  0  0  0  0
    2.3631  -16.0988  -92.7701 C   0  0  1  0  0  0  0  0  0  0  0  0
    1.3238  -15.4726  -93.4759 C   0  0  2  0  0  0  0  0  0  0  0  0
    1.1887  -14.8486  -94.8430 C   0  0  0  0  0  0  0  0  0  0  0  0
    1.5157  -15.8564  -95.9500 C   0  0  0  0  0  0  0  0  0  0  0  0
    1.3074  -15.2491  -97.2192 O   0  0  0  0  0  0  0  0  0  0  0  0
  1 11  1  0  0  0  0
  3 13  1  6  0  0  0
  3 17  2  0  0  0  0
  3 20  1  0  0  0  0
  3 26  1  0  0  0  0
  4 14  1  6  0  0  0
  4 18  1  0  0  0  0
  4 21  2  0  0  0  0
  4 20  1  0  0  0  0
  5 19  1  0  0  0  0
  5  7  1  0  0  0  0
  6  7  2  0  0  0  0
  6 12  1  0  0  0  0
  7  8  1  0  0  0  0
  8  9  1  0  0  0  0
  8 10  2  0  0  0  0
 10 11  1  0  0  0  0
 11 12  2  0  0  0  0
 15 23  1  0  0  0  0
 15 16  1  0  0  0  0
 16 19  1  0  0  0  0
 19 22  1  0  0  0  0
 22  2  1  1  0  0  0
 22 23  1  0  0  0  0
 23 24  1  1  0  0  0
 24 25  1  0  0  0  0
 25 26  1  0  0  0  0
M  CHG  2  13  -1  18  -1
M  END
>  <CHROM.1>
59.28028571,20.59657603,-131.79001554,-64.40883210,-122.00268981,176.93142209
176.40798690,169.15028534,1.11077598,-17.04801197,-94.39419439,1.55374150
1.08890577,1.67480418

>  <Name>
ligand

>  <RI>
0

>  <Rbt.Current_Directory>
/home/itssahil/PROJECTS/Mol_Feturizer/New_Systems/rnas/2CKY

>  <Rbt.Executable>
rbdock ($Id: //depot/dev/client3/rdock/2013.1/src/exe/rbdock.cxx#4 $)

>  <Rbt.Library>
libRbt.so (2013.1, Build901 2013/11/27)

>  <Rbt.Parameter_File>
/export/apps/rDock/src/rDock_2013.1_src/data/scripts/dock_solv.prm

>  <Rbt.Receptor>
prm/pocket_docking_7.prm

>  <SCORE>
-19.5905

>  <SCORE.INTER>
-13.8835

>  <SCORE.INTER.CONST>
1

>  <SCORE.INTER.POLAR>
0

>  <SCORE.INTER.ROT>
8

>  <SCORE.INTER.SOLV>
9.0514

>  <SCORE.INTER.VDW>
-21.2061

>  <SCORE.INTER.norm>
-0.533981

>  <SCORE.INTRA>
-5.70697

>  <SCORE.INTRA.DIHEDRAL>
-11.6358

>  <SCORE.INTRA.DIHEDRAL.0>
16.4846

>  <SCORE.INTRA.POLAR>
0

>  <SCORE.INTRA.POLAR.0>
0

>  <SCORE.INTRA.REPUL>
0

>  <SCORE.INTRA.REPUL.0>
0

>  <SCORE.INTRA.SOLV>
1.97269

>  <SCORE.INTRA.SOLV.lig_0>
-82.6983

>  <SCORE.INTRA.VDW>
-0.875406

>  <SCORE.INTRA.VDW.0>
-2.11466

>  <SCORE.INTRA.norm>
-0.219499

>  <SCORE.RESTR>
0

>  <SCORE.RESTR.CAVITY>
0

>  <SCORE.RESTR.norm>
0

>  <SCORE.SYSTEM>
0

>  <SCORE.SYSTEM.CONST>
0

>  <SCORE.SYSTEM.DIHEDRAL>
0

>  <SCORE.SYSTEM.SOLV>
0

>  <SCORE.SYSTEM.norm>
0

>  <SCORE.heavy>
26

>  <SCORE.norm>
-0.75348

>  <RMSD>
2.935

$$$$
ligand
 OpenBabel11021811423D
libRbt.so/2013.1/901 2013/11/27
 26 27  0  0  0  0  0  0  0  0999 V2000
    0.1252  -19.0112  -85.8647 C   0  0  0  0  0  0  0  0  0  0  0  0
    2.3411  -17.9754  -94.2173 C   0  0  0  0  0  0  0  0  0  0  0  0
   -0.7575  -16.4508  -98.5503 P   0  0  2  0  0  0  0  0  0  0  0  0
   -3.1570  -15.0978  -98.2639 P   0  0  2  0  0  0  0  0  0  0  0  0
    2.1708  -17.7692  -91.0741 C   0  0  0  0  0  0  0  0  0  0  0  0
    0.5085  -18.8105  -89.5533 C   0  0  0  0  0  0  0  0  0  0  0  0
    1.6616  -18.0482  -89.6879 C   0  0  0  0  0  0  0  0  0  0  0  0
    2.3264  -17.6213  -88.5346 C   0  0  0  0  0  0  0  0  0  0  0  0
    3.4462  -16.8975  -88.5395 N   0  0  0  0  0  0  0  0  0  0  0  0
    1.8100  -17.9508  -87.3082 N   0  0  0  0  0  0  0  0  0  0  0  0
    0.6624  -18.6858  -87.2075 C   0  0  0  0  0  0  0  0  0  0  0  0
    0.0034  -19.1264  -88.3103 N   0  0  0  0  0  0  0  0  0  0  0  0
   -0.6895  -15.7270  -99.8806 O   0  5  0  0  0  0  0  0  0  0  0  0
   -4.4317  -15.2790  -97.4707 O   0  0  0  0  0  0  0  0  0  0  0  0
   -1.0444  -16.4894  -92.9162 S   0  0  0  0  0  0  0  0  0  0  0  0
   -0.0647  -16.8679  -91.6699 C   0  0  0  0  0  0  0  0  0  0  0  0
   -0.0966  -17.8095  -98.7673 O   0  0  0  0  0  0  0  0  0  0  0  0
   -3.4333  -14.9505  -99.7463 O   0  5  0  0  0  0  0  0  0  0  0  0
    1.1539  -17.4093  -92.0332 N   0  0  0  0  0  0  0  0  0  0  0  0
   -2.2992  -16.4276  -98.0722 O   0  0  0  0  0  0  0  0  0  0  0  0
   -2.4365  -13.8759  -97.7313 O   0  0  0  0  0  0  0  0  0  0  0  0
    1.2133  -17.4785  -93.4033 C   0  0  1  0  0  0  0  0  0  0  0  0
    0.0353  -16.9834  -93.9843 C   0  0  2  0  0  0  0  0  0  0  0  0
   -0.4587  -16.7956  -95.3976 C   0  0  0  0  0  0  0  0  0  0  0  0
    0.4444  -15.8363  -96.1803 C   0  0  0  0  0  0  0  0  0  0  0  0
   -0.2165  -15.4317  -97.3729 O   0  0  0  0  0  0  0  0  0  0  0  0
  1 11  1  0  0  0  0
  3 13  1  6  0  0  0
  3 17  2  0  0  0  0
  3 20  1  0  0  0  0
  3 26  1  0  0  0  0
  4 14  1  1  0  0  0
  4 18  1  0  0  0  0
  4 21  2  0  0  0  0
  4 20  1  0  0  0  0
  5 19  1  0  0  0  0
  5  7  1  0  0  0  0
  6  7  2  0  0  0  0
  6 12  1  0  0  0  0
  7  8  1  0  0  0  0
  8  9  1  0  0  0  0
  8 10  2  0  0  0  0
 10 11  1  0  0  0  0
 11 12  2  0  0  0  0
 15 23  1  0  0  0  0
 15 16  1  0  0  0  0
 16 19  1  0  0  0  0
 19 22  1  0  0  0  0
 22  2  1  6  0  0  0
 22 23  1  0  0  0  0
 23 24  1  6  0  0  0
 24 25  1  0  0  0  0
 25 26  1  0  0  0  0
M  CHG  2  13  -1  18  -1
M  END
>  <CHROM.1>
-41.37098579,23.64038937,43.25572699,-168.15403701,118.46655402,-165.88999795
-58.15580071,-149.51706344,-0.33241368,-16.77436586,-94.14294088,1.24691014
-0.27397507,1.72917412

>  <Name>
ligand

>  <RI>
0

>  <Rbt.Current_Directory>
/home/itssahil/PROJECTS/Mol_Feturizer/New_Systems/rnas/2CKY

>  <Rbt.Executable>
rbdock ($Id: //depot/dev/client3/rdock/2013.1/src/exe/rbdock.cxx#4 $)

>  <Rbt.Library>
libRbt.so (2013.1, Build901 2013/11/27)

>  <Rbt.Parameter_File>
/export/apps/rDock/src/rDock_2013.1_src/data/scripts/dock_solv.prm

>  <Rbt.Receptor>
prm/pocket_docking_5.prm

>  <SCORE>
-20.242

>  <SCORE.INTER>
-16.2962

>  <SCORE.INTER.CONST>
1

>  <SCORE.INTER.POLAR>
0

>  <SCORE.INTER.ROT>
8

>  <SCORE.INTER.SOLV>
17.1042

>  <SCORE.INTER.VDW>
-25.4989

>  <SCORE.INTER.norm>
-0.626779

>  <SCORE.INTRA>
-3.94576

>  <SCORE.INTRA.DIHEDRAL>
-9.26675

>  <SCORE.INTRA.DIHEDRAL.0>
16.4846

>  <SCORE.INTRA.POLAR>
0

>  <SCORE.INTRA.POLAR.0>
0

>  <SCORE.INTRA.REPUL>
0

>  <SCORE.INTRA.REPUL.0>
0

>  <SCORE.INTRA.SOLV>
3.03112

>  <SCORE.INTRA.SOLV.lig_0>
-82.6983

>  <SCORE.INTRA.VDW>
-0.827946

>  <SCORE.INTRA.VDW.0>
-2.11466

>  <SCORE.INTRA.norm>
-0.15176

>  <SCORE.RESTR>
0

>  <SCORE.RESTR.CAVITY>
0

>  <SCORE.RESTR.norm>
0

>  <SCORE.SYSTEM>
0

>  <SCORE.SYSTEM.CONST>
0

>  <SCORE.SYSTEM.DIHEDRAL>
0

>  <SCORE.SYSTEM.SOLV>
0

>  <SCORE.SYSTEM.norm>
0

>  <SCORE.heavy>
26

>  <SCORE.norm>
-0.778539

>  <RMSD>
2.938

$$$$
ligand
 OpenBabel11021811423D
libRbt.so/2013.1/901 2013/11/27
 26 27  0  0  0  0  0  0  0  0999 V2000
   -0.4948  -19.4347  -85.4077 C   0  0  0  0  0  0  0  0  0  0  0  0
    1.5145  -15.5073  -92.5668 C   0  0  0  0  0  0  0  0  0  0  0  0
    1.6466  -17.0195  -96.7922 P   0  0  2  0  0  0  0  0  0  0  0  0
    4.1034  -16.1639  -95.8423 P   0  0  2  0  0  0  0  0  0  0  0  0
    1.6316  -17.8899  -90.5025 C   0  0  0  0  0  0  0  0  0  0  0  0
   -0.0591  -19.0097  -89.0714 C   0  0  0  0  0  0  0  0  0  0  0  0
    1.1013  -18.2498  -89.1431 C   0  0  0  0  0  0  0  0  0  0  0  0
    1.7531  -17.9003  -87.9568 C   0  0  0  0  0  0  0  0  0  0  0  0
    2.8780  -17.1866  -87.9020 N   0  0  0  0  0  0  0  0  0  0  0  0
    1.2173  -18.3008  -86.7602 N   0  0  0  0  0  0  0  0  0  0  0  0
    0.0632  -19.0313  -86.7205 C   0  0  0  0  0  0  0  0  0  0  0  0
   -0.5836  -19.3977  -87.8572 N   0  0  0  0  0  0  0  0  0  0  0  0
    1.0986  -18.3890  -97.1417 O   0  5  0  0  0  0  0  0  0  0  0  0
    4.9601  -16.4379  -97.0578 O   0  0  0  0  0  0  0  0  0  0  0  0
   -1.5327  -17.9600  -92.8157 S   0  0  0  0  0  0  0  0  0  0  0  0
   -0.4943  -18.4472  -91.6579 C   0  0  0  0  0  0  0  0  0  0  0  0
    1.8530  -16.2897  -98.1168 O   0  0  0  0  0  0  0  0  0  0  0  0
    4.8805  -16.3448  -94.5543 O   0  5  0  0  0  0  0  0  0  0  0  0
    0.6205  -17.6451  -91.5031 N   0  0  0  0  0  0  0  0  0  0  0  0
    2.9343  -17.2475  -95.8458 O   0  0  0  0  0  0  0  0  0  0  0  0
    3.5675  -14.7506  -95.9483 O   0  0  0  0  0  0  0  0  0  0  0  0
    0.5441  -16.6084  -92.4003 C   0  0  1  0  0  0  0  0  0  0  0  0
   -0.6245  -16.6958  -93.1731 C   0  0  2  0  0  0  0  0  0  0  0  0
   -1.2411  -15.8642  -94.2706 C   0  0  0  0  0  0  0  0  0  0  0  0
   -0.7176  -16.2838  -95.6484 C   0  0  0  0  0  0  0  0  0  0  0  0
    0.7018  -16.3649  -95.6104 O   0  0  0  0  0  0  0  0  0  0  0  0
  1 11  1  0  0  0  0
  3 13  1  6  0  0  0
  3 17  2  0  0  0  0
  3 20  1  0  0  0  0
  3 26  1  0  0  0  0
  4 14  1  6  0  0  0
  4 18  1  0  0  0  0
  4 21  2  0  0  0  0
  4 20  1  0  0  0  0
  5 19  1  0  0  0  0
  5  7  1  0  0  0  0
  6  7  2  0  0  0  0
  6 12  1  0  0  0  0
  7  8  1  0  0  0  0
  8  9  1  0  0  0  0
  8 10  2  0  0  0  0
 10 11  1  0  0  0  0
 11 12  2  0  0  0  0
 15 23  1  0  0  0  0
 15 16  1  0  0  0  0
 16 19  1  0  0  0  0
 19 22  1  0  0  0  0
 22  2  1  1  0  0  0
 22 23  1  0  0  0  0
 23 24  1  1  0  0  0
 24 25  1  0  0  0  0
 25 26  1  0  0  0  0
M  CHG  2  13  -1  18  -1
M  END
>  <CHROM.1>
151.94405723,-43.61446325,34.96061186,-80.60175140,-93.00317174,-48.72555305
169.20834321,-50.07990175,1.30288389,-17.24430556,-92.92517174,-1.82096814
-0.20049861,-1.38273031

>  <Name>
ligand

>  <RI>
0

>  <Rbt.Current_Directory>
/home/itssahil/PROJECTS/Mol_Feturizer/New_Systems/rnas/2CKY

>  <Rbt.Executable>
rbdock ($Id: //depot/dev/client3/rdock/2013.1/src/exe/rbdock.cxx#4 $)

>  <Rbt.Library>
libRbt.so (2013.1, Build901 2013/11/27)

>  <Rbt.Parameter_File>
/export/apps/rDock/src/rDock_2013.1_src/data/scripts/dock_solv.prm

>  <Rbt.Receptor>
prm/pocket_docking_6.prm

>  <SCORE>
-24.8497

>  <SCORE.INTER>
-19.9872

>  <SCORE.INTER.CONST>
1

>  <SCORE.INTER.POLAR>
0

>  <SCORE.INTER.ROT>
8

>  <SCORE.INTER.SOLV>
25.2923

>  <SCORE.INTER.VDW>
-30.6889

>  <SCORE.INTER.norm>
-0.768738

>  <SCORE.INTRA>
-4.86248

>  <SCORE.INTRA.DIHEDRAL>
-8.41976

>  <SCORE.INTRA.DIHEDRAL.0>
16.4846

>  <SCORE.INTRA.POLAR>
0

>  <SCORE.INTRA.POLAR.0>
0

>  <SCORE.INTRA.REPUL>
0

>  <SCORE.INTRA.REPUL.0>
0

>  <SCORE.INTRA.SOLV>
0.842896

>  <SCORE.INTRA.SOLV.lig_0>
-82.6983

>  <SCORE.INTRA.VDW>
-1.07404

>  <SCORE.INTRA.VDW.0>
-2.11466

>  <SCORE.INTRA.norm>
-0.187018

>  <SCORE.RESTR>
0

>  <SCORE.RESTR.CAVITY>
0

>  <SCORE.RESTR.norm>
0

>  <SCORE.SYSTEM>
0

>  <SCORE.SYSTEM.CONST>
0

>  <SCORE.SYSTEM.DIHEDRAL>
0

>  <SCORE.SYSTEM.SOLV>
0

>  <SCORE.SYSTEM.norm>
0

>  <SCORE.heavy>
26

>  <SCORE.norm>
-0.955757

>  <RMSD>
2.944

$$$$
ligand
 OpenBabel11021811423D
libRbt.so/2013.1/901 2013/11/27
 26 27  0  0  0  0  0  0  0  0999 V2000
    0.9971  -18.7822  -87.3282 C   0  0  0  0  0  0  0  0  0  0  0  0
   -1.4958  -15.7935  -95.1795 C   0  0  0  0  0  0  0  0  0  0  0  0
    1.3971  -16.6250  -98.7861 P   0  0  2  0  0  0  0  0  0  0  0  0
    3.1845  -16.4113  -96.6814 P   0  0  2  0  0  0  0  0  0  0  0  0
   -0.1551  -16.3116  -92.3714 C   0  0  0  0  0  0  0  0  0  0  0  0
   -0.8197  -17.5409  -90.3202 C   0  0  0  0  0  0  0  0  0  0  0  0
    0.1928  -16.9247  -91.0441 C   0  0  0  0  0  0  0  0  0  0  0  0
    1.4952  -16.9482  -90.5367 C   0  0  0  0  0  0  0  0  0  0  0  0
    2.5475  -16.4029  -91.1475 N   0  0  0  0  0  0  0  0  0  0  0  0
    1.7294  -17.5606  -89.3327 N   0  0  0  0  0  0  0  0  0  0  0  0
    0.7090  -18.1416  -88.6337 C   0  0  0  0  0  0  0  0  0  0  0  0
   -0.5633  -18.1468  -89.1089 N   0  0  0  0  0  0  0  0  0  0  0  0
    2.3389  -17.7519  -99.1620 O   0  5  0  0  0  0  0  0  0  0  0  0
    2.5431  -17.6930  -96.1993 O   0  0  0  0  0  0  0  0  0  0  0  0
   -0.2621  -19.4799  -94.6778 S   0  0  0  0  0  0  0  0  0  0  0  0
    0.0681  -18.5778  -93.3612 C   0  0  0  0  0  0  0  0  0  0  0  0
    0.9855  -15.9559 -100.0948 O   0  0  0  0  0  0  0  0  0  0  0  0
    3.4258  -15.4406  -95.5433 O   0  5  0  0  0  0  0  0  0  0  0  0
   -0.3243  -17.2556  -93.4502 N   0  0  0  0  0  0  0  0  0  0  0  0
    2.1499  -15.7225  -97.6795 O   0  0  0  0  0  0  0  0  0  0  0  0
    4.4883  -16.7625  -97.3688 O   0  0  0  0  0  0  0  0  0  0  0  0
   -0.9162  -17.0540  -94.6727 C   0  0  1  0  0  0  0  0  0  0  0  0
   -0.9327  -18.2384  -95.4260 C   0  0  2  0  0  0  0  0  0  0  0  0
   -1.4476  -18.6269  -96.7900 C   0  0  0  0  0  0  0  0  0  0  0  0
   -0.3540  -18.4977  -97.8557 C   0  0  0  0  0  0  0  0  0  0  0  0
    0.2592  -17.2186  -97.7516 O   0  0  0  0  0  0  0  0  0  0  0  0
  1 11  1  0  0  0  0
  3 13  1  6  0  0  0
  3 17  2  0  0  0  0
  3 20  1  0  0  0  0
  3 26  1  0  0  0  0
  4 14  1  1  0  0  0
  4 18  1  0  0  0  0
  4 21  2  0  0  0  0
  4 20  1  0  0  0  0
  5 19  1  0  0  0  0
  5  7  1  0  0  0  0
  6  7  2  0  0  0  0
  6 12  1  0  0  0  0
  7  8  1  0  0  0  0
  8  9  1  0  0  0  0
  8 10  2  0  0  0  0
 10 11  1  0  0  0  0
 11 12  2  0  0  0  0
 15 23  1  0  0  0  0
 15 16  1  0  0  0  0
 16 19  1  0  0  0  0
 19 22  1  0  0  0  0
 22  2  1  1  0  0  0
 22 23  1  0  0  0  0
 23 24  1  1  0  0  0
 24 25  1  0  0  0  0
 25 26  1  0  0  0  0
M  CHG  2  13  -1  18  -1
M  END
>  <CHROM.1>
-30.91523859,-12.99764220,-76.64301025,-44.42418413,-87.25662579,-49.91575479
-174.74113077,-39.19498682,0.96265654,-17.30003624,-94.72646611,-1.72183828
-0.40362088,-1.51734815

>  <Name>
ligand

>  <RI>
0

>  <Rbt.Current_Directory>
/home/itssahil/PROJECTS/Mol_Feturizer/New_Systems/rnas/2CKY

>  <Rbt.Executable>
rbdock ($Id: //depot/dev/client3/rdock/2013.1/src/exe/rbdock.cxx#4 $)

>  <Rbt.Library>
libRbt.so (2013.1, Build901 2013/11/27)

>  <Rbt.Parameter_File>
/export/apps/rDock/src/rDock_2013.1_src/data/scripts/dock_solv.prm

>  <Rbt.Receptor>
prm/pocket_docking_4.prm

>  <SCORE>
-19.5159

>  <SCORE.INTER>
-12.4655

>  <SCORE.INTER.CONST>
1

>  <SCORE.INTER.POLAR>
0

>  <SCORE.INTER.ROT>
8

>  <SCORE.INTER.SOLV>
12.3919

>  <SCORE.INTER.VDW>
-21.3743

>  <SCORE.INTER.norm>
-0.479443

>  <SCORE.INTRA>
-7.05041

>  <SCORE.INTRA.DIHEDRAL>
-8.85702

>  <SCORE.INTRA.DIHEDRAL.0>
16.4846

>  <SCORE.INTRA.POLAR>
0

>  <SCORE.INTRA.POLAR.0>
0

>  <SCORE.INTRA.REPUL>
0

>  <SCORE.INTRA.REPUL.0>
0

>  <SCORE.INTRA.SOLV>
-0.29385

>  <SCORE.INTRA.SOLV.lig_0>
-82.6983

>  <SCORE.INTRA.VDW>
-2.47498

>  <SCORE.INTRA.VDW.0>
-2.11466

>  <SCORE.INTRA.norm>
-0.27117

>  <SCORE.RESTR>
0

>  <SCORE.RESTR.CAVITY>
0

>  <SCORE.RESTR.norm>
0

>  <SCORE.SYSTEM>
0

>  <SCORE.SYSTEM.CONST>
0

>  <SCORE.SYSTEM.DIHEDRAL>
0

>  <SCORE.SYSTEM.SOLV>
0

>  <SCORE.SYSTEM.norm>
0

>  <SCORE.heavy>
26

>  <SCORE.norm>
-0.750613

>  <RMSD>
2.965

$$$$
ligand
 OpenBabel11021811423D
libRbt.so/2013.1/901 2013/11/27
 26 27  0  0  0  0  0  0  0  0999 V2000
    4.1278  -17.0007  -88.6772 C   0  0  0  0  0  0  0  0  0  0  0  0
   -0.3625  -15.5723  -92.8173 C   0  0  0  0  0  0  0  0  0  0  0  0
    1.9422  -13.6778  -98.3147 P   0  0  2  0  0  0  0  0  0  0  0  0
    1.3743  -15.1402 -100.5971 P   0  0  2  0  0  0  0  0  0  0  0  0
   -0.4716  -18.5340  -91.7366 C   0  0  0  0  0  0  0  0  0  0  0  0
    0.6544  -17.9279  -89.6093 C   0  0  0  0  0  0  0  0  0  0  0  0
    0.7572  -18.1094  -90.9825 C   0  0  0  0  0  0  0  0  0  0  0  0
    2.0036  -17.9439  -91.5934 C   0  0  0  0  0  0  0  0  0  0  0  0
    2.2259  -18.1039  -92.8983 N   0  0  0  0  0  0  0  0  0  0  0  0
    3.0805  -17.5889  -90.8228 N   0  0  0  0  0  0  0  0  0  0  0  0
    2.9444  -17.3981  -89.4766 C   0  0  0  0  0  0  0  0  0  0  0  0
    1.7491  -17.5660  -88.8539 N   0  0  0  0  0  0  0  0  0  0  0  0
    1.8866  -12.2265  -97.8801 O   0  5  0  0  0  0  0  0  0  0  0  0
    0.4486  -16.0676  -99.8424 O   0  0  0  0  0  0  0  0  0  0  0  0
   -0.7445  -18.2667  -95.6382 S   0  0  0  0  0  0  0  0  0  0  0  0
   -0.6643  -18.9748  -94.1725 C   0  0  0  0  0  0  0  0  0  0  0  0
    3.3760  -14.1427  -98.0739 O   0  0  0  0  0  0  0  0  0  0  0  0
    2.8018  -15.6481 -100.5971 O   0  5  0  0  0  0  0  0  0  0  0  0
   -0.5194  -18.1000  -93.1124 N   0  0  0  0  0  0  0  0  0  0  0  0
    1.3677  -13.7474  -99.8217 O   0  0  0  0  0  0  0  0  0  0  0  0
    0.8565  -15.0031 -102.0145 O   0  0  0  0  0  0  0  0  0  0  0  0
   -0.4872  -16.8175  -93.6020 C   0  0  1  0  0  0  0  0  0  0  0  0
   -0.6110  -16.8087  -95.0002 C   0  0  2  0  0  0  0  0  0  0  0  0
   -0.6576  -15.7350  -96.0593 C   0  0  0  0  0  0  0  0  0  0  0  0
    0.7521  -15.2963  -96.4699 C   0  0  0  0  0  0  0  0  0  0  0  0
    0.6734  -14.4770  -97.6299 O   0  0  0  0  0  0  0  0  0  0  0  0
  1 11  1  0  0  0  0
  3 13  1  1  0  0  0
  3 17  2  0  0  0  0
  3 20  1  0  0  0  0
  3 26  1  0  0  0  0
  4 14  1  1  0  0  0
  4 18  1  0  0  0  0
  4 21  2  0  0  0  0
  4 20  1  0  0  0  0
  5 19  1  0  0  0  0
  5  7  1  0  0  0  0
  6  7  2  0  0  0  0
  6 12  1  0  0  0  0
  7  8  1  0  0  0  0
  8  9  1  0  0  0  0
  8 10  2  0  0  0  0
 10 11  1  0  0  0  0
 11 12  2  0  0  0  0
 15 23  1  0  0  0  0
 15 16  1  0  0  0  0
 16 19  1  0  0  0  0
 19 22  1  0  0  0  0
 22  2  1  1  0  0  0
 22 23  1  0  0  0  0
 23 24  1  1  0  0  0
 24 25  1  0  0  0  0
 25 26  1  0  0  0  0
M  CHG  2  13  -1  18  -1
M  END
>  <CHROM.1>
176.48069902,123.54221872,151.37598253,64.11578543,-96.49032271,169.25408850
173.79789513,-100.19264969,1.09862882,-16.19282192,-95.48918194,-1.57159853
-0.67808978,-1.23718920

>  <Name>
ligand

>  <RI>
0

>  <Rbt.Current_Directory>
/home/itssahil/PROJECTS/Mol_Feturizer/New_Systems/rnas/2CKY

>  <Rbt.Executable>
rbdock ($Id: //depot/dev/client3/rdock/2013.1/src/exe/rbdock.cxx#4 $)

>  <Rbt.Library>
libRbt.so (2013.1, Build901 2013/11/27)

>  <Rbt.Parameter_File>
/export/apps/rDock/src/rDock_2013.1_src/data/scripts/dock_solv.prm

>  <Rbt.Receptor>
prm/pocket_docking_2.prm

>  <SCORE>
-9.34242

>  <SCORE.INTER>
-5.23583

>  <SCORE.INTER.CONST>
1

>  <SCORE.INTER.POLAR>
0

>  <SCORE.INTER.ROT>
8

>  <SCORE.INTER.SOLV>
11.9181

>  <SCORE.INTER.VDW>
-16.3966

>  <SCORE.INTER.norm>
-0.201378

>  <SCORE.INTRA>
-5.56516

>  <SCORE.INTRA.DIHEDRAL>
-9.5361

>  <SCORE.INTRA.DIHEDRAL.0>
16.4846

>  <SCORE.INTRA.POLAR>
0

>  <SCORE.INTRA.POLAR.0>
0

>  <SCORE.INTRA.REPUL>
0

>  <SCORE.INTRA.REPUL.0>
0

>  <SCORE.INTRA.SOLV>
2.84154

>  <SCORE.INTRA.SOLV.lig_0>
-82.6983

>  <SCORE.INTRA.VDW>
-2.21788

>  <SCORE.INTRA.VDW.0>
-2.11466

>  <SCORE.INTRA.norm>
-0.214045

>  <SCORE.RESTR>
1.45858

>  <SCORE.RESTR.CAVITY>
1.45858

>  <SCORE.RESTR.norm>
0.0560992

>  <SCORE.SYSTEM>
0

>  <SCORE.SYSTEM.CONST>
0

>  <SCORE.SYSTEM.DIHEDRAL>
0

>  <SCORE.SYSTEM.SOLV>
0

>  <SCORE.SYSTEM.norm>
0

>  <SCORE.heavy>
26

>  <SCORE.norm>
-0.359324

>  <RMSD>
2.995

$$$$
ligand
 OpenBabel11021811423D
libRbt.so/2013.1/901 2013/11/27
 26 27  0  0  0  0  0  0  0  0999 V2000
    3.0218  -17.6105  -88.2103 C   0  0  0  0  0  0  0  0  0  0  0  0
   -1.6816  -16.0349  -94.8287 C   0  0  0  0  0  0  0  0  0  0  0  0
   -0.2083  -15.5214  -98.1968 P   0  0  2  0  0  0  0  0  0  0  0  0
    0.4285  -12.8267  -98.1380 P   0  0  2  0  0  0  0  0  0  0  0  0
   -1.3212  -17.2344  -91.9335 C   0  0  0  0  0  0  0  0  0  0  0  0
   -0.3036  -18.0235  -89.8116 C   0  0  0  0  0  0  0  0  0  0  0  0
   -0.1619  -17.2834  -90.9783 C   0  0  0  0  0  0  0  0  0  0  0  0
    1.0638  -16.6640  -91.2395 C   0  0  0  0  0  0  0  0  0  0  0  0
    1.3207  -15.9405  -92.3296 N   0  0  0  0  0  0  0  0  0  0  0  0
    2.0804  -16.7895  -90.3283 N   0  0  0  0  0  0  0  0  0  0  0  0
    1.9049  -17.5083  -89.1795 C   0  0  0  0  0  0  0  0  0  0  0  0
    0.7301  -18.1327  -88.9063 N   0  0  0  0  0  0  0  0  0  0  0  0
    0.1035  -15.6346  -99.6760 O   0  5  0  0  0  0  0  0  0  0  0  0
    1.4255  -11.9334  -97.4347 O   0  0  0  0  0  0  0  0  0  0  0  0
   -0.5677  -19.7928  -94.8068 S   0  0  0  0  0  0  0  0  0  0  0  0
   -0.7157  -19.2270  -93.2855 C   0  0  0  0  0  0  0  0  0  0  0  0
   -1.7266  -15.4097  -98.0861 O   0  0  0  0  0  0  0  0  0  0  0  0
   -0.9993  -12.4635  -97.7842 O   0  5  0  0  0  0  0  0  0  0  0  0
   -1.0978  -17.9020  -93.1936 N   0  0  0  0  0  0  0  0  0  0  0  0
    0.6837  -14.3097  -97.6120 O   0  0  0  0  0  0  0  0  0  0  0  0
    0.6553  -12.7073  -99.6313 O   0  0  0  0  0  0  0  0  0  0  0  0
   -1.2618  -17.4027  -94.4622 C   0  0  1  0  0  0  0  0  0  0  0  0
   -0.9936  -18.3847  -95.4287 C   0  0  2  0  0  0  0  0  0  0  0  0
   -1.0202  -18.4314  -96.9366 C   0  0  0  0  0  0  0  0  0  0  0  0
    0.3552  -18.1050  -97.5283 C   0  0  0  0  0  0  0  0  0  0  0  0
    0.6072  -16.7112  -97.3986 O   0  0  0  0  0  0  0  0  0  0  0  0
  1 11  1  0  0  0  0
  3 13  1  6  0  0  0
  3 17  2  0  0  0  0
  3 20  1  0  0  0  0
  3 26  1  0  0  0  0
  4 14  1  1  0  0  0
  4 18  1  0  0  0  0
  4 21  2  0  0  0  0
  4 20  1  0  0  0  0
  5 19  1  0  0  0  0
  5  7  1  0  0  0  0
  6  7  2  0  0  0  0
  6 12  1  0  0  0  0
  7  8  1  0  0  0  0
  8  9  1  0  0  0  0
  8 10  2  0  0  0  0
 10 11  1  0  0  0  0
 11 12  2  0  0  0  0
 15 23  1  0  0  0  0
 15 16  1  0  0  0  0
 16 19  1  0  0  0  0
 19 22  1  0  0  0  0
 22  2  1  1  0  0  0
 22 23  1  0  0  0  0
 23 24  1  1  0  0  0
 24 25  1  0  0  0  0
 25 26  1  0  0  0  0
M  CHG  2  13  -1  18  -1
M  END
>  <CHROM.1>
64.02349813,55.51228443,-112.34282246,-178.82645299,-87.72415200,-73.78231248
-67.53782946,-66.60521770,0.07117317,-16.30048374,-95.01397744,-1.37847973
-1.13574509,-0.95680091

>  <Name>
ligand

>  <RI>
0

>  <Rbt.Current_Directory>
/home/itssahil/PROJECTS/Mol_Feturizer/New_Systems/rnas/2CKY

>  <Rbt.Executable>
rbdock ($Id: //depot/dev/client3/rdock/2013.1/src/exe/rbdock.cxx#4 $)

>  <Rbt.Library>
libRbt.so (2013.1, Build901 2013/11/27)

>  <Rbt.Parameter_File>
/export/apps/rDock/src/rDock_2013.1_src/data/scripts/dock_solv.prm

>  <Rbt.Receptor>
prm/pocket_docking_3.prm

>  <SCORE>
-14.9649

>  <SCORE.INTER>
-10.1726

>  <SCORE.INTER.CONST>
1

>  <SCORE.INTER.POLAR>
0

>  <SCORE.INTER.ROT>
8

>  <SCORE.INTER.SOLV>
7.81284

>  <SCORE.INTER.VDW>
-18.3194

>  <SCORE.INTER.norm>
-0.391255

>  <SCORE.INTRA>
-4.79228

>  <SCORE.INTRA.DIHEDRAL>
-10.5906

>  <SCORE.INTRA.DIHEDRAL.0>
16.4846

>  <SCORE.INTRA.POLAR>
0

>  <SCORE.INTRA.POLAR.0>
0

>  <SCORE.INTRA.REPUL>
0

>  <SCORE.INTRA.REPUL.0>
0

>  <SCORE.INTRA.SOLV>
5.9557

>  <SCORE.INTRA.SOLV.lig_0>
-82.6983

>  <SCORE.INTRA.VDW>
-2.47481

>  <SCORE.INTRA.VDW.0>
-2.11466

>  <SCORE.INTRA.norm>
-0.184318

>  <SCORE.RESTR>
0

>  <SCORE.RESTR.CAVITY>
0

>  <SCORE.RESTR.norm>
0

>  <SCORE.SYSTEM>
0

>  <SCORE.SYSTEM.CONST>
0

>  <SCORE.SYSTEM.DIHEDRAL>
0

>  <SCORE.SYSTEM.SOLV>
0

>  <SCORE.SYSTEM.norm>
0

>  <SCORE.heavy>
26

>  <SCORE.norm>
-0.575573

>  <RMSD>
3.003

$$$$
ligand
 OpenBabel11021811423D
libRbt.so/2013.1/901 2013/11/27
 26 27  0  0  0  0  0  0  0  0999 V2000
    0.5332  -18.9331  -86.4172 C   0  0  0  0  0  0  0  0  0  0  0  0
    0.5030  -14.6095  -92.6450 C   0  0  0  0  0  0  0  0  0  0  0  0
   -1.4354  -16.7131  -98.5408 P   0  0  2  0  0  0  0  0  0  0  0  0
    0.9888  -17.8630  -97.8541 P   0  0  2  0  0  0  0  0  0  0  0  0
    1.9563  -17.2482  -91.7088 C   0  0  0  0  0  0  0  0  0  0  0  0
    2.5098  -17.8200  -89.3579 C   0  0  0  0  0  0  0  0  0  0  0  0
    1.5370  -17.7165  -90.3437 C   0  0  0  0  0  0  0  0  0  0  0  0
    0.2083  -17.9977  -90.0124 C   0  0  0  0  0  0  0  0  0  0  0  0
   -0.8104  -17.9202  -90.8692 N   0  0  0  0  0  0  0  0  0  0  0  0
   -0.0905  -18.3854  -88.7318 N   0  0  0  0  0  0  0  0  0  0  0  0
    0.8914  -18.4973  -87.7881 C   0  0  0  0  0  0  0  0  0  0  0  0
    2.1883  -18.2166  -88.0775 N   0  0  0  0  0  0  0  0  0  0  0  0
   -1.8202  -18.1324  -98.9089 O   0  5  0  0  0  0  0  0  0  0  0  0
    1.8608  -17.2788  -96.7656 O   0  0  0  0  0  0  0  0  0  0  0  0
   -0.9216  -17.8653  -94.2983 S   0  0  0  0  0  0  0  0  0  0  0  0
    0.3090  -18.2219  -93.2911 C   0  0  0  0  0  0  0  0  0  0  0  0
   -2.1596  -15.8026  -99.5289 O   0  0  0  0  0  0  0  0  0  0  0  0
    1.8137  -18.4894  -98.9599 O   0  5  0  0  0  0  0  0  0  0  0  0
    0.8827  -17.1306  -92.6664 N   0  0  0  0  0  0  0  0  0  0  0  0
    0.1771  -16.6513  -98.4977 O   0  0  0  0  0  0  0  0  0  0  0  0
    0.0703  -18.8911  -97.2256 O   0  0  0  0  0  0  0  0  0  0  0  0
    0.2285  -15.9952  -93.0766 C   0  0  1  0  0  0  0  0  0  0  0  0
   -0.7972  -16.3045  -93.9837 C   0  0  2  0  0  0  0  0  0  0  0  0
   -1.8311  -15.5042  -94.7368 C   0  0  0  0  0  0  0  0  0  0  0  0
   -1.4262  -15.3100  -96.2019 C   0  0  0  0  0  0  0  0  0  0  0  0
   -1.6396  -16.5212  -96.9163 O   0  0  0  0  0  0  0  0  0  0  0  0
  1 11  1  0  0  0  0
  3 13  1  6  0  0  0
  3 17  2  0  0  0  0
  3 20  1  0  0  0  0
  3 26  1  0  0  0  0
  4 14  1  1  0  0  0
  4 18  1  0  0  0  0
  4 21  2  0  0  0  0
  4 20  1  0  0  0  0
  5 19  1  0  0  0  0
  5  7  1  0  0  0  0
  6  7  2  0  0  0  0
  6 12  1  0  0  0  0
  7  8  1  0  0  0  0
  8  9  1  0  0  0  0
  8 10  2  0  0  0  0
 10 11  1  0  0  0  0
 11 12  2  0  0  0  0
 15 23  1  0  0  0  0
 15 16  1  0  0  0  0
 16 19  1  0  0  0  0
 19 22  1  0  0  0  0
 22  2  1  1  0  0  0
 22 23  1  0  0  0  0
 23 24  1  1  0  0  0
 24 25  1  0  0  0  0
 25 26  1  0  0  0  0
M  CHG  2  13  -1  18  -1
M  END
>  <CHROM.1>
-40.87782752,-76.31480770,-178.31580064,-124.10487857,-78.20599900,75.56294384
175.38391458,-177.68270639,0.03797157,-17.32423091,-94.34398684,1.37756367
-0.57887947,1.56194370

>  <Name>
ligand

>  <RI>
0

>  <Rbt.Current_Directory>
/home/itssahil/PROJECTS/Mol_Feturizer/New_Systems/rnas/2CKY

>  <Rbt.Executable>
rbdock ($Id: //depot/dev/client3/rdock/2013.1/src/exe/rbdock.cxx#4 $)

>  <Rbt.Library>
libRbt.so (2013.1, Build901 2013/11/27)

>  <Rbt.Parameter_File>
/export/apps/rDock/src/rDock_2013.1_src/data/scripts/dock_solv.prm

>  <Rbt.Receptor>
prm/pocket_docking_4.prm

>  <SCORE>
-16.9887

>  <SCORE.INTER>
-13.9045

>  <SCORE.INTER.CONST>
1

>  <SCORE.INTER.POLAR>
0

>  <SCORE.INTER.ROT>
8

>  <SCORE.INTER.SOLV>
13.1774

>  <SCORE.INTER.VDW>
-22.5954

>  <SCORE.INTER.norm>
-0.534787

>  <SCORE.INTRA>
-3.08422

>  <SCORE.INTRA.DIHEDRAL>
-7.63397

>  <SCORE.INTRA.DIHEDRAL.0>
16.4846

>  <SCORE.INTRA.POLAR>
0

>  <SCORE.INTRA.POLAR.0>
0

>  <SCORE.INTRA.REPUL>
0

>  <SCORE.INTRA.REPUL.0>
0

>  <SCORE.INTRA.SOLV>
5.96377

>  <SCORE.INTRA.SOLV.lig_0>
-82.6983

>  <SCORE.INTRA.VDW>
-2.24912

>  <SCORE.INTRA.VDW.0>
-2.11466

>  <SCORE.INTRA.norm>
-0.118624

>  <SCORE.RESTR>
0

>  <SCORE.RESTR.CAVITY>
0

>  <SCORE.RESTR.norm>
0

>  <SCORE.SYSTEM>
0

>  <SCORE.SYSTEM.CONST>
0

>  <SCORE.SYSTEM.DIHEDRAL>
0

>  <SCORE.SYSTEM.SOLV>
0

>  <SCORE.SYSTEM.norm>
0

>  <SCORE.heavy>
26

>  <SCORE.norm>
-0.65341

>  <RMSD>
3.003

$$$$
ligand
 OpenBabel11021811423D
libRbt.so/2013.1/901 2013/11/27
 26 27  0  0  0  0  0  0  0  0999 V2000
   -0.0569  -18.9518  -86.0938 C   0  0  0  0  0  0  0  0  0  0  0  0
    3.6091  -16.4939  -93.7440 C   0  0  0  0  0  0  0  0  0  0  0  0
    3.4901  -13.0377  -96.9253 P   0  0  2  0  0  0  0  0  0  0  0  0
    4.6069  -15.3780  -97.8980 P   0  0  2  0  0  0  0  0  0  0  0  0
    2.7241  -17.5572  -90.9090 C   0  0  0  0  0  0  0  0  0  0  0  0
    2.5511  -17.7308  -88.4391 C   0  0  0  0  0  0  0  0  0  0  0  0
    1.9646  -17.9615  -89.6767 C   0  0  0  0  0  0  0  0  0  0  0  0
    0.6780  -18.5063  -89.7224 C   0  0  0  0  0  0  0  0  0  0  0  0
    0.0106  -18.7591  -90.8487 N   0  0  0  0  0  0  0  0  0  0  0  0
    0.0434  -18.8139  -88.5468 N   0  0  0  0  0  0  0  0  0  0  0  0
    0.6539  -18.5936  -87.3443 C   0  0  0  0  0  0  0  0  0  0  0  0
    1.8973  -18.0522  -87.2690 N   0  0  0  0  0  0  0  0  0  0  0  0
    3.6694  -12.5334  -98.3436 O   0  5  0  0  0  0  0  0  0  0  0  0
    3.2986  -16.1354  -97.9305 O   0  0  0  0  0  0  0  0  0  0  0  0
    0.5285  -14.5943  -92.2392 S   0  0  0  0  0  0  0  0  0  0  0  0
    1.0302  -15.7700  -91.2281 C   0  0  0  0  0  0  0  0  0  0  0  0
    3.6821  -11.8289  -96.0131 O   0  0  0  0  0  0  0  0  0  0  0  0
    5.7717  -16.2823  -97.5502 O   0  5  0  0  0  0  0  0  0  0  0  0
    2.1113  -16.5026  -91.6808 N   0  0  0  0  0  0  0  0  0  0  0  0
    4.4859  -14.2940  -96.7355 O   0  0  0  0  0  0  0  0  0  0  0  0
    4.8167  -14.7350  -99.2539 O   0  0  0  0  0  0  0  0  0  0  0  0
    2.4888  -16.0164  -92.9082 C   0  0  1  0  0  0  0  0  0  0  0  0
    1.6680  -14.9476  -93.3011 C   0  0  2  0  0  0  0  0  0  0  0  0
    1.6093  -14.0336  -94.5001 C   0  0  0  0  0  0  0  0  0  0  0  0
    1.7543  -14.8199  -95.8074 C   0  0  0  0  0  0  0  0  0  0  0  0
    2.1047  -13.9287  -96.8590 O   0  0  0  0  0  0  0  0  0  0  0  0
  1 11  1  0  0  0  0
  3 13  1  6  0  0  0
  3 17  2  0  0  0  0
  3 20  1  0  0  0  0
  3 26  1  0  0  0  0
  4 14  1  6  0  0  0
  4 18  1  0  0  0  0
  4 21  2  0  0  0  0
  4 20  1  0  0  0  0
  5 19  1  0  0  0  0
  5  7  1  0  0  0  0
  6  7  2  0  0  0  0
  6 12  1  0  0  0  0
  7  8  1  0  0  0  0
  8  9  1  0  0  0  0
  8 10  2  0  0  0  0
 10 11  1  0  0  0  0
 11 12  2  0  0  0  0
 15 23  1  0  0  0  0
 15 16  1  0  0  0  0
 16 19  1  0  0  0  0
 19 22  1  0  0  0  0
 22  2  1  1  0  0  0
 22 23  1  0  0  0  0
 23 24  1  1  0  0  0
 24 25  1  0  0  0  0
 25 26  1  0  0  0  0
M  CHG  2  13  -1  18  -1
M  END
>  <CHROM.1>
-42.86595523,9.82972504,-114.82161106,-69.73444430,-135.19483003,-162.23351615
62.60087600,164.37420609,2.48944812,-15.71661968,-93.67490404,2.05998520
-0.88721911,2.37181595

>  <Name>
ligand

>  <RI>
0

>  <Rbt.Current_Directory>
/home/itssahil/PROJECTS/Mol_Feturizer/New_Systems/rnas/2CKY

>  <Rbt.Executable>
rbdock ($Id: //depot/dev/client3/rdock/2013.1/src/exe/rbdock.cxx#4 $)

>  <Rbt.Library>
libRbt.so (2013.1, Build901 2013/11/27)

>  <Rbt.Parameter_File>
/export/apps/rDock/src/rDock_2013.1_src/data/scripts/dock_solv.prm

>  <Rbt.Receptor>
prm/pocket_docking_4.prm

>  <SCORE>
-19.5249

>  <SCORE.INTER>
-15.0988

>  <SCORE.INTER.CONST>
1

>  <SCORE.INTER.POLAR>
0

>  <SCORE.INTER.ROT>
8

>  <SCORE.INTER.SOLV>
13.6548

>  <SCORE.INTER.VDW>
-23.5508

>  <SCORE.INTER.norm>
-0.580722

>  <SCORE.INTRA>
-4.43528

>  <SCORE.INTRA.DIHEDRAL>
-10.027

>  <SCORE.INTRA.DIHEDRAL.0>
16.4846

>  <SCORE.INTRA.POLAR>
0

>  <SCORE.INTRA.POLAR.0>
0

>  <SCORE.INTRA.REPUL>
0

>  <SCORE.INTRA.REPUL.0>
0

>  <SCORE.INTRA.SOLV>
2.79238

>  <SCORE.INTRA.SOLV.lig_0>
-82.6983

>  <SCORE.INTRA.VDW>
-0.81798

>  <SCORE.INTRA.VDW.0>
-2.11466

>  <SCORE.INTRA.norm>
-0.170588

>  <SCORE.RESTR>
0.00911741

>  <SCORE.RESTR.CAVITY>
0.00911741

>  <SCORE.RESTR.norm>
0.000350669

>  <SCORE.SYSTEM>
0

>  <SCORE.SYSTEM.CONST>
0

>  <SCORE.SYSTEM.DIHEDRAL>
0

>  <SCORE.SYSTEM.SOLV>
0

>  <SCORE.SYSTEM.norm>
0

>  <SCORE.heavy>
26

>  <SCORE.norm>
-0.750959

>  <RMSD>
3.019

$$$$
ligand
 OpenBabel11021811423D
libRbt.so/2013.1/901 2013/11/27
 26 27  0  0  0  0  0  0  0  0999 V2000
    0.7932  -18.8188  -87.0226 C   0  0  0  0  0  0  0  0  0  0  0  0
    4.7706  -15.8479  -93.9500 C   0  0  0  0  0  0  0  0  0  0  0  0
    2.1545  -14.2088  -98.6299 P   0  0  2  0  0  0  0  0  0  0  0  0
    3.3014  -16.5454  -99.5763 P   0  0  2  0  0  0  0  0  0  0  0  0
    4.2497  -16.3646  -90.8819 C   0  0  0  0  0  0  0  0  0  0  0  0
    3.7008  -17.1114  -88.5794 C   0  0  0  0  0  0  0  0  0  0  0  0
    3.3191  -17.0382  -89.9129 C   0  0  0  0  0  0  0  0  0  0  0  0
    2.0695  -17.5421  -90.2855 C   0  0  0  0  0  0  0  0  0  0  0  0
    1.5915  -17.5156  -91.5299 N   0  0  0  0  0  0  0  0  0  0  0  0
    1.2686  -18.1098  -89.3286 N   0  0  0  0  0  0  0  0  0  0  0  0
    1.6797  -18.1852  -88.0276 C   0  0  0  0  0  0  0  0  0  0  0  0
    2.8820  -17.6910  -87.6341 N   0  0  0  0  0  0  0  0  0  0  0  0
    0.8394  -14.9554  -98.5239 O   0  5  0  0  0  0  0  0  0  0  0  0
    4.6207  -17.2689  -99.4265 O   0  0  0  0  0  0  0  0  0  0  0  0
    2.1869  -13.3719  -92.3509 S   0  0  0  0  0  0  0  0  0  0  0  0
    2.7209  -14.4418  -91.2434 C   0  0  0  0  0  0  0  0  0  0  0  0
    2.0525  -13.3362  -99.8781 O   0  0  0  0  0  0  0  0  0  0  0  0
    3.1228  -15.9849 -100.9726 O   0  5  0  0  0  0  0  0  0  0  0  0
    3.6329  -15.3644  -91.7201 N   0  0  0  0  0  0  0  0  0  0  0  0
    3.3344  -15.3090  -98.5707 O   0  0  0  0  0  0  0  0  0  0  0  0
    2.1871  -17.5171  -99.2446 O   0  0  0  0  0  0  0  0  0  0  0  0
    3.8555  -15.1147  -93.0519 C   0  0  1  0  0  0  0  0  0  0  0  0
    3.0972  -14.0188  -93.4927 C   0  0  2  0  0  0  0  0  0  0  0  0
    2.9406  -13.2896  -94.8043 C   0  0  0  0  0  0  0  0  0  0  0  0
    2.5358  -14.2479  -95.9295 C   0  0  0  0  0  0  0  0  0  0  0  0
    2.4951  -13.5397  -97.1622 O   0  0  0  0  0  0  0  0  0  0  0  0
  1 11  1  0  0  0  0
  3 13  1  1  0  0  0
  3 17  2  0  0  0  0
  3 20  1  0  0  0  0
  3 26  1  0  0  0  0
  4 14  1  1  0  0  0
  4 18  1  0  0  0  0
  4 21  2  0  0  0  0
  4 20  1  0  0  0  0
  5 19  1  0  0  0  0
  5  7  1  0  0  0  0
  6  7  2  0  0  0  0
  6 12  1  0  0  0  0
  7  8  1  0  0  0  0
  8  9  1  0  0  0  0
  8 10  2  0  0  0  0
 10 11  1  0  0  0  0
 11 12  2  0  0  0  0
 15 23  1  0  0  0  0
 15 16  1  0  0  0  0
 16 19  1  0  0  0  0
 19 22  1  0  0  0  0
 22  2  1  1  0  0  0
 22 23  1  0  0  0  0
 23 24  1  1  0  0  0
 24 25  1  0  0  0  0
 25 26  1  0  0  0  0
M  CHG  2  13  -1  18  -1
M  END
>  <CHROM.1>
53.00611390,42.56655302,-129.88522586,171.58167410,-124.77928197,-175.77187331
177.77393807,53.32392656,2.71232519,-15.70677868,-94.53170085,-2.22777687
1.51411698,-0.74086044

>  <Name>
ligand

>  <RI>
0

>  <Rbt.Current_Directory>
/home/itssahil/PROJECTS/Mol_Feturizer/New_Systems/rnas/2CKY

>  <Rbt.Executable>
rbdock ($Id: //depot/dev/client3/rdock/2013.1/src/exe/rbdock.cxx#4 $)

>  <Rbt.Library>
libRbt.so (2013.1, Build901 2013/11/27)

>  <Rbt.Parameter_File>
/export/apps/rDock/src/rDock_2013.1_src/data/scripts/dock_solv.prm

>  <Rbt.Receptor>
prm/pocket_docking_5.prm

>  <SCORE>
-18.3836

>  <SCORE.INTER>
-13.4229

>  <SCORE.INTER.CONST>
1

>  <SCORE.INTER.POLAR>
0

>  <SCORE.INTER.ROT>
8

>  <SCORE.INTER.SOLV>
9.08785

>  <SCORE.INTER.VDW>
-20.9112

>  <SCORE.INTER.norm>
-0.516267

>  <SCORE.INTRA>
-4.96061

>  <SCORE.INTRA.DIHEDRAL>
-11.4871

>  <SCORE.INTRA.DIHEDRAL.0>
16.4846

>  <SCORE.INTRA.POLAR>
0

>  <SCORE.INTRA.POLAR.0>
0

>  <SCORE.INTRA.REPUL>
0

>  <SCORE.INTRA.REPUL.0>
0

>  <SCORE.INTRA.SOLV>
4.20039

>  <SCORE.INTRA.SOLV.lig_0>
-82.6983

>  <SCORE.INTRA.VDW>
-1.31723

>  <SCORE.INTRA.VDW.0>
-2.11466

>  <SCORE.INTRA.norm>
-0.190793

>  <SCORE.RESTR>
0

>  <SCORE.RESTR.CAVITY>
0

>  <SCORE.RESTR.norm>
0

>  <SCORE.SYSTEM>
0

>  <SCORE.SYSTEM.CONST>
0

>  <SCORE.SYSTEM.DIHEDRAL>
0

>  <SCORE.SYSTEM.SOLV>
0

>  <SCORE.SYSTEM.norm>
0

>  <SCORE.heavy>
26

>  <SCORE.norm>
-0.70706

>  <RMSD>
3.026

$$$$
ligand
 OpenBabel11021811423D
libRbt.so/2013.1/901 2013/11/27
 26 27  0  0  0  0  0  0  0  0999 V2000
    4.4361  -16.9605  -88.5825 C   0  0  0  0  0  0  0  0  0  0  0  0
    0.8178  -19.1312  -94.5870 C   0  0  0  0  0  0  0  0  0  0  0  0
    2.7458  -15.8780  -98.8742 P   0  0  2  0  0  0  0  0  0  0  0  0
    3.8378  -17.7713 -100.5752 P   0  0  2  0  0  0  0  0  0  0  0  0
   -0.1150  -18.6977  -91.6049 C   0  0  0  0  0  0  0  0  0  0  0  0
    2.1883  -17.7917  -91.4197 C   0  0  0  0  0  0  0  0  0  0  0  0
    1.0610  -18.2764  -90.7692 C   0  0  0  0  0  0  0  0  0  0  0  0
    1.0468  -18.3005  -89.3715 C   0  0  0  0  0  0  0  0  0  0  0  0
    0.0185  -18.7305  -88.6397 N   0  0  0  0  0  0  0  0  0  0  0  0
    2.1516  -17.8642  -88.6872 N   0  0  0  0  0  0  0  0  0  0  0  0
    3.2541  -17.4110  -89.3554 C   0  0  0  0  0  0  0  0  0  0  0  0
    3.2907  -17.3625  -90.7122 N   0  0  0  0  0  0  0  0  0  0  0  0
    2.4886  -14.9731 -100.0629 O   0  5  0  0  0  0  0  0  0  0  0  0
    3.5019  -16.9140 -101.7748 O   0  0  0  0  0  0  0  0  0  0  0  0
   -1.2421  -15.8414  -94.0419 S   0  0  0  0  0  0  0  0  0  0  0  0
   -1.0937  -16.6662  -92.6442 C   0  0  0  0  0  0  0  0  0  0  0  0
    3.9891  -15.3296  -98.1791 O   0  0  0  0  0  0  0  0  0  0  0  0
    3.6635  -19.2468 -100.8722 O   0  5  0  0  0  0  0  0  0  0  0  0
   -0.3870  -17.8500  -92.7410 N   0  0  0  0  0  0  0  0  0  0  0  0
    2.7962  -17.3930  -99.4293 O   0  0  0  0  0  0  0  0  0  0  0  0
    5.2658  -17.4745 -100.1647 O   0  0  0  0  0  0  0  0  0  0  0  0
    0.0206  -18.0135  -94.0420 C   0  0  1  0  0  0  0  0  0  0  0  0
   -0.4046  -16.9412  -94.8418 C   0  0  2  0  0  0  0  0  0  0  0  0
   -0.2501  -16.5693  -96.2959 C   0  0  0  0  0  0  0  0  0  0  0  0
    1.2248  -16.5472  -96.7114 C   0  0  0  0  0  0  0  0  0  0  0  0
    1.3333  -16.0654  -98.0452 O   0  0  0  0  0  0  0  0  0  0  0  0
  1 11  1  0  0  0  0
  3 13  1  6  0  0  0
  3 17  2  0  0  0  0
  3 20  1  0  0  0  0
  3 26  1  0  0  0  0
  4 14  1  6  0  0  0
  4 18  1  0  0  0  0
  4 21  2  0  0  0  0
  4 20  1  0  0  0  0
  5 19  1  0  0  0  0
  5  7  1  0  0  0  0
  6  7  2  0  0  0  0
  6 12  1  0  0  0  0
  7  8  1  0  0  0  0
  8  9  1  0  0  0  0
  8 10  2  0  0  0  0
 10 11  1  0  0  0  0
 11 12  2  0  0  0  0
 15 23  1  0  0  0  0
 15 16  1  0  0  0  0
 16 19  1  0  0  0  0
 19 22  1  0  0  0  0
 22  2  1  1  0  0  0
 22 23  1  0  0  0  0
 23 24  1  1  0  0  0
 24 25  1  0  0  0  0
 25 26  1  0  0  0  0
M  CHG  2  13  -1  18  -1
M  END
>  <CHROM.1>
56.76878494,-81.85822996,-39.23927062,-60.65380022,125.01198383,-174.27166948
179.70283336,-163.12109339,1.83560297,-17.18024150,-95.35899656,-1.78298890
0.17354061,-1.45055862

>  <Name>
ligand

>  <RI>
0

>  <Rbt.Current_Directory>
/home/itssahil/PROJECTS/Mol_Feturizer/New_Systems/rnas/2CKY

>  <Rbt.Executable>
rbdock ($Id: //depot/dev/client3/rdock/2013.1/src/exe/rbdock.cxx#4 $)

>  <Rbt.Library>
libRbt.so (2013.1, Build901 2013/11/27)

>  <Rbt.Parameter_File>
/export/apps/rDock/src/rDock_2013.1_src/data/scripts/dock_solv.prm

>  <Rbt.Receptor>
prm/pocket_docking_8.prm

>  <SCORE>
-16.2149

>  <SCORE.INTER>
-9.45339

>  <SCORE.INTER.CONST>
1

>  <SCORE.INTER.POLAR>
0

>  <SCORE.INTER.ROT>
8

>  <SCORE.INTER.SOLV>
19.5326

>  <SCORE.INTER.VDW>
-21.7465

>  <SCORE.INTER.norm>
-0.363592

>  <SCORE.INTRA>
-6.76151

>  <SCORE.INTRA.DIHEDRAL>
-10.9997

>  <SCORE.INTRA.DIHEDRAL.0>
16.4846

>  <SCORE.INTRA.POLAR>
0

>  <SCORE.INTRA.POLAR.0>
0

>  <SCORE.INTRA.REPUL>
0

>  <SCORE.INTRA.REPUL.0>
0

>  <SCORE.INTRA.SOLV>
-0.0489515

>  <SCORE.INTRA.SOLV.lig_0>
-82.6983

>  <SCORE.INTRA.VDW>
-1.23718

>  <SCORE.INTRA.VDW.0>
-2.11466

>  <SCORE.INTRA.norm>
-0.260058

>  <SCORE.RESTR>
0

>  <SCORE.RESTR.CAVITY>
0

>  <SCORE.RESTR.norm>
0

>  <SCORE.SYSTEM>
0

>  <SCORE.SYSTEM.CONST>
0

>  <SCORE.SYSTEM.DIHEDRAL>
0

>  <SCORE.SYSTEM.SOLV>
0

>  <SCORE.SYSTEM.norm>
0

>  <SCORE.heavy>
26

>  <SCORE.norm>
-0.62365

>  <RMSD>
3.035

$$$$
ligand
 OpenBabel11021811423D
libRbt.so/2013.1/901 2013/11/27
 26 27  0  0  0  0  0  0  0  0999 V2000
   -0.4928  -19.5721  -85.5061 C   0  0  0  0  0  0  0  0  0  0  0  0
    1.9890  -19.4623  -92.7589 C   0  0  0  0  0  0  0  0  0  0  0  0
   -0.5625  -17.0304  -97.1654 P   0  0  2  0  0  0  0  0  0  0  0  0
   -0.9033  -14.5408  -96.0009 P   0  0  2  0  0  0  0  0  0  0  0  0
    1.3765  -17.3853  -90.4649 C   0  0  0  0  0  0  0  0  0  0  0  0
   -0.3752  -18.3988  -89.0279 C   0  0  0  0  0  0  0  0  0  0  0  0
    0.9268  -17.9279  -89.1374 C   0  0  0  0  0  0  0  0  0  0  0  0
    1.7756  -18.0279  -88.0311 C   0  0  0  0  0  0  0  0  0  0  0  0
    3.0459  -17.6226  -88.0219 N   0  0  0  0  0  0  0  0  0  0  0  0
    1.2920  -18.5688  -86.8680 N   0  0  0  0  0  0  0  0  0  0  0  0
   -0.0000  -19.0059  -86.7845 C   0  0  0  0  0  0  0  0  0  0  0  0
   -0.8428  -18.9346  -87.8472 N   0  0  0  0  0  0  0  0  0  0  0  0
   -0.2580  -17.3665  -98.6119 O   0  5  0  0  0  0  0  0  0  0  0  0
   -2.0524  -14.0590  -96.8576 O   0  0  0  0  0  0  0  0  0  0  0  0
   -1.4630  -17.6486  -93.1549 S   0  0  0  0  0  0  0  0  0  0  0  0
   -0.6965  -17.1405  -91.8093 C   0  0  0  0  0  0  0  0  0  0  0  0
   -2.0491  -17.3119  -96.9637 O   0  0  0  0  0  0  0  0  0  0  0  0
    0.0022  -13.4006  -95.5817 O   0  5  0  0  0  0  0  0  0  0  0  0
    0.5306  -17.7342  -91.5811 N   0  0  0  0  0  0  0  0  0  0  0  0
   -0.0350  -15.5275  -96.9029 O   0  0  0  0  0  0  0  0  0  0  0  0
   -1.4780  -15.2403  -94.7859 O   0  0  0  0  0  0  0  0  0  0  0  0
    0.7840  -18.6238  -92.5959 C   0  0  1  0  0  0  0  0  0  0  0  0
   -0.2686  -18.6423  -93.5245 C   0  0  2  0  0  0  0  0  0  0  0  0
   -0.5415  -19.3807  -94.8116 C   0  0  0  0  0  0  0  0  0  0  0  0
    0.5652  -19.1318  -95.8419 C   0  0  0  0  0  0  0  0  0  0  0  0
    0.5676  -17.7583  -96.2111 O   0  0  0  0  0  0  0  0  0  0  0  0
  1 11  1  0  0  0  0
  3 13  1  6  0  0  0
  3 17  2  0  0  0  0
  3 20  1  0  0  0  0
  3 26  1  0  0  0  0
  4 14  1  6  0  0  0
  4 18  1  0  0  0  0
  4 21  2  0  0  0  0
  4 20  1  0  0  0  0
  5 19  1  0  0  0  0
  5  7  1  0  0  0  0
  6  7  2  0  0  0  0
  6 12  1  0  0  0  0
  7  8  1  0  0  0  0
  8  9  1  0  0  0  0
  8 10  2  0  0  0  0
 10 11  1  0  0  0  0
 11 12  2  0  0  0  0
 15 23  1  0  0  0  0
 15 16  1  0  0  0  0
 16 19  1  0  0  0  0
 19 22  1  0  0  0  0
 22  2  1  6  0  0  0
 22 23  1  0  0  0  0
 23 24  1  6  0  0  0
 24 25  1  0  0  0  0
 25 26  1  0  0  0  0
M  CHG  2  13  -1  18  -1
M  END
>  <CHROM.1>
140.39921930,75.26944126,-15.87983752,-77.09509855,122.16534970,-64.91949541
-72.99653397,-78.97001470,-0.12635015,-17.31071805,-93.11961331,0.96461984
-1.29991681,1.25893177

>  <Name>
ligand

>  <RI>
0

>  <Rbt.Current_Directory>
/home/itssahil/PROJECTS/Mol_Feturizer/New_Systems/rnas/2CKY

>  <Rbt.Executable>
rbdock ($Id: //depot/dev/client3/rdock/2013.1/src/exe/rbdock.cxx#4 $)

>  <Rbt.Library>
libRbt.so (2013.1, Build901 2013/11/27)

>  <Rbt.Parameter_File>
/export/apps/rDock/src/rDock_2013.1_src/data/scripts/dock_solv.prm

>  <Rbt.Receptor>
prm/pocket_docking_3.prm

>  <SCORE>
-21.9474

>  <SCORE.INTER>
-16.2632

>  <SCORE.INTER.CONST>
1

>  <SCORE.INTER.POLAR>
0

>  <SCORE.INTER.ROT>
8

>  <SCORE.INTER.SOLV>
20.2757

>  <SCORE.INTER.VDW>
-26.534

>  <SCORE.INTER.norm>
-0.625507

>  <SCORE.INTRA>
-5.68417

>  <SCORE.INTRA.DIHEDRAL>
-8.12898

>  <SCORE.INTRA.DIHEDRAL.0>
16.4846

>  <SCORE.INTRA.POLAR>
0

>  <SCORE.INTRA.POLAR.0>
0

>  <SCORE.INTRA.REPUL>
0

>  <SCORE.INTRA.REPUL.0>
0

>  <SCORE.INTRA.SOLV>
1.54065

>  <SCORE.INTRA.SOLV.lig_0>
-82.6983

>  <SCORE.INTRA.VDW>
-2.39001

>  <SCORE.INTRA.VDW.0>
-2.11466

>  <SCORE.INTRA.norm>
-0.218622

>  <SCORE.RESTR>
0

>  <SCORE.RESTR.CAVITY>
0

>  <SCORE.RESTR.norm>
0

>  <SCORE.SYSTEM>
0

>  <SCORE.SYSTEM.CONST>
0

>  <SCORE.SYSTEM.DIHEDRAL>
0

>  <SCORE.SYSTEM.SOLV>
0

>  <SCORE.SYSTEM.norm>
0

>  <SCORE.heavy>
26

>  <SCORE.norm>
-0.844129

>  <RMSD>
3.086

$$$$
ligand
 OpenBabel11021811423D
libRbt.so/2013.1/901 2013/11/27
 26 27  0  0  0  0  0  0  0  0999 V2000
    3.4745  -17.2587  -88.4080 C   0  0  0  0  0  0  0  0  0  0  0  0
   -0.6058  -16.0220  -93.7909 C   0  0  0  0  0  0  0  0  0  0  0  0
    2.9800  -15.4909  -99.0476 P   0  0  2  0  0  0  0  0  0  0  0  0
    4.1656  -13.0717  -98.4055 P   0  0  2  0  0  0  0  0  0  0  0  0
   -0.7718  -18.6208  -92.0106 C   0  0  0  0  0  0  0  0  0  0  0  0
    0.0999  -17.9963  -89.7721 C   0  0  0  0  0  0  0  0  0  0  0  0
    0.3721  -18.2448  -91.1112 C   0  0  0  0  0  0  0  0  0  0  0  0
    1.6977  -18.1887  -91.5518 C   0  0  0  0  0  0  0  0  0  0  0  0
    2.0805  -18.4207  -92.8077 N   0  0  0  0  0  0  0  0  0  0  0  0
    2.6843  -17.8714  -90.6544 N   0  0  0  0  0  0  0  0  0  0  0  0
    2.3834  -17.6126  -89.3469 C   0  0  0  0  0  0  0  0  0  0  0  0
    1.1067  -17.6740  -88.8875 N   0  0  0  0  0  0  0  0  0  0  0  0
    4.1160  -16.3993  -98.6207 O   0  5  0  0  0  0  0  0  0  0  0  0
    5.5055  -13.7502  -98.2299 O   0  0  0  0  0  0  0  0  0  0  0  0
   -0.0154  -19.3419  -95.7890 S   0  0  0  0  0  0  0  0  0  0  0  0
   -0.2745  -19.6576  -94.2112 C   0  0  0  0  0  0  0  0  0  0  0  0
    3.1192  -15.3108 -100.5569 O   0  0  0  0  0  0  0  0  0  0  0  0
    3.9649  -11.9550  -97.4014 O   0  5  0  0  0  0  0  0  0  0  0  0
   -0.4846  -18.5420  -93.4229 N   0  0  0  0  0  0  0  0  0  0  0  0
    3.0482  -14.1720  -98.1193 O   0  0  0  0  0  0  0  0  0  0  0  0
    4.0864  -12.5373  -99.8211 O   0  0  0  0  0  0  0  0  0  0  0  0
   -0.4214  -17.4240  -94.2176 C   0  0  1  0  0  0  0  0  0  0  0  0
   -0.1687  -17.7696  -95.5544 C   0  0  2  0  0  0  0  0  0  0  0  0
   -0.0135  -17.0003  -96.8431 C   0  0  0  0  0  0  0  0  0  0  0  0
    1.4504  -16.6226  -97.0935 C   0  0  0  0  0  0  0  0  0  0  0  0
    1.5789  -16.0649  -98.3955 O   0  0  0  0  0  0  0  0  0  0  0  0
  1 11  1  0  0  0  0
  3 13  1  1  0  0  0
  3 17  2  0  0  0  0
  3 20  1  0  0  0  0
  3 26  1  0  0  0  0
  4 14  1  1  0  0  0
  4 18  1  0  0  0  0
  4 21  2  0  0  0  0
  4 20  1  0  0  0  0
  5 19  1  0  0  0  0
  5  7  1  0  0  0  0
  6  7  2  0  0  0  0
  6 12  1  0  0  0  0
  7  8  1  0  0  0  0
  8  9  1  0  0  0  0
  8 10  2  0  0  0  0
 10 11  1  0  0  0  0
 11 12  2  0  0  0  0
 15 23  1  0  0  0  0
 15 16  1  0  0  0  0
 16 19  1  0  0  0  0
 19 22  1  0  0  0  0
 22  2  1  6  0  0  0
 22 23  1  0  0  0  0
 23 24  1  6  0  0  0
 24 25  1  0  0  0  0
 25 26  1  0  0  0  0
M  CHG  2  13  -1  18  -1
M  END
>  <CHROM.1>
75.65963807,105.13639069,165.43611851,-60.96386305,-89.58681389,172.09582568
178.31422912,38.45919920,1.91208792,-16.45077695,-95.33508192,-1.99922407
-0.78012896,-1.40772642

>  <Name>
ligand

>  <RI>
0

>  <Rbt.Current_Directory>
/home/itssahil/PROJECTS/Mol_Feturizer/New_Systems/rnas/2CKY

>  <Rbt.Executable>
rbdock ($Id: //depot/dev/client3/rdock/2013.1/src/exe/rbdock.cxx#4 $)

>  <Rbt.Library>
libRbt.so (2013.1, Build901 2013/11/27)

>  <Rbt.Parameter_File>
/export/apps/rDock/src/rDock_2013.1_src/data/scripts/dock_solv.prm

>  <Rbt.Receptor>
prm/pocket_docking_3.prm

>  <SCORE>
-16.2438

>  <SCORE.INTER>
-11.4067

>  <SCORE.INTER.CONST>
1

>  <SCORE.INTER.POLAR>
0

>  <SCORE.INTER.ROT>
8

>  <SCORE.INTER.SOLV>
12.6019

>  <SCORE.INTER.VDW>
-20.7384

>  <SCORE.INTER.norm>
-0.43872

>  <SCORE.INTRA>
-4.83703

>  <SCORE.INTRA.DIHEDRAL>
-10.6

>  <SCORE.INTRA.DIHEDRAL.0>
16.4846

>  <SCORE.INTRA.POLAR>
0

>  <SCORE.INTRA.POLAR.0>
0

>  <SCORE.INTRA.REPUL>
0

>  <SCORE.INTRA.REPUL.0>
0

>  <SCORE.INTRA.SOLV>
4.16758

>  <SCORE.INTRA.SOLV.lig_0>
-82.6983

>  <SCORE.INTRA.VDW>
-1.6208

>  <SCORE.INTRA.VDW.0>
-2.11466

>  <SCORE.INTRA.norm>
-0.18604

>  <SCORE.RESTR>
0

>  <SCORE.RESTR.CAVITY>
0

>  <SCORE.RESTR.norm>
0

>  <SCORE.SYSTEM>
0

>  <SCORE.SYSTEM.CONST>
0

>  <SCORE.SYSTEM.DIHEDRAL>
0

>  <SCORE.SYSTEM.SOLV>
0

>  <SCORE.SYSTEM.norm>
0

>  <SCORE.heavy>
26

>  <SCORE.norm>
-0.62476

>  <RMSD>
3.087

$$$$
ligand
 OpenBabel11021811423D
libRbt.so/2013.1/901 2013/11/27
 26 27  0  0  0  0  0  0  0  0999 V2000
    0.0348  -19.2803  -85.9674 C   0  0  0  0  0  0  0  0  0  0  0  0
    1.1094  -15.7057  -93.8263 C   0  0  0  0  0  0  0  0  0  0  0  0
   -2.6466  -15.2933  -97.8274 P   0  0  2  0  0  0  0  0  0  0  0  0
   -2.1723  -12.7383  -96.8695 P   0  0  2  0  0  0  0  0  0  0  0  0
    1.5939  -16.9694  -90.9768 C   0  0  0  0  0  0  0  0  0  0  0  0
   -0.0690  -18.0086  -89.4553 C   0  0  0  0  0  0  0  0  0  0  0  0
    1.2276  -17.5456  -89.6380 C   0  0  0  0  0  0  0  0  0  0  0  0
    2.1467  -17.6841  -88.5938 C   0  0  0  0  0  0  0  0  0  0  0  0
    3.4188  -17.2899  -88.6578 N   0  0  0  0  0  0  0  0  0  0  0  0
    1.7356  -18.2537  -87.4165 N   0  0  0  0  0  0  0  0  0  0  0  0
    0.4476  -18.6822  -87.2594 C   0  0  0  0  0  0  0  0  0  0  0  0
   -0.4629  -18.5738  -88.2614 N   0  0  0  0  0  0  0  0  0  0  0  0
   -2.5778  -15.4275  -99.3358 O   0  5  0  0  0  0  0  0  0  0  0  0
   -3.1314  -12.2210  -97.9179 O   0  0  0  0  0  0  0  0  0  0  0  0
   -0.3998  -19.3001  -93.4185 S   0  0  0  0  0  0  0  0  0  0  0  0
    0.3497  -18.8313  -92.0493 C   0  0  0  0  0  0  0  0  0  0  0  0
   -4.1203  -15.0979  -97.4812 O   0  0  0  0  0  0  0  0  0  0  0  0
   -0.9857  -11.8138  -96.6878 O   0  5  0  0  0  0  0  0  0  0  0  0
    0.9227  -17.5747  -92.1022 N   0  0  0  0  0  0  0  0  0  0  0  0
   -1.6097  -14.1310  -97.4034 O   0  0  0  0  0  0  0  0  0  0  0  0
   -2.9315  -12.8945  -95.5676 O   0  0  0  0  0  0  0  0  0  0  0  0
    0.6899  -17.0373  -93.3442 C   0  0  1  0  0  0  0  0  0  0  0  0
   -0.0450  -17.9238  -94.1471 C   0  0  2  0  0  0  0  0  0  0  0  0
   -0.5953  -17.8834  -95.5513 C   0  0  0  0  0  0  0  0  0  0  0  0
   -1.4718  -16.6456  -95.7706 C   0  0  0  0  0  0  0  0  0  0  0  0
   -1.7811  -16.5240  -97.1535 O   0  0  0  0  0  0  0  0  0  0  0  0
  1 11  1  0  0  0  0
  3 13  1  6  0  0  0
  3 17  2  0  0  0  0
  3 20  1  0  0  0  0
  3 26  1  0  0  0  0
  4 14  1  6  0  0  0
  4 18  1  0  0  0  0
  4 21  2  0  0  0  0
  4 20  1  0  0  0  0
  5 19  1  0  0  0  0
  5  7  1  0  0  0  0
  6  7  2  0  0  0  0
  6 12  1  0  0  0  0
  7  8  1  0  0  0  0
  8  9  1  0  0  0  0
  8 10  2  0  0  0  0
 10 11  1  0  0  0  0
 11 12  2  0  0  0  0
 15 23  1  0  0  0  0
 15 16  1  0  0  0  0
 16 19  1  0  0  0  0
 19 22  1  0  0  0  0
 22  2  1  1  0  0  0
 22 23  1  0  0  0  0
 23 24  1  1  0  0  0
 24 25  1  0  0  0  0
 25 26  1  0  0  0  0
M  CHG  2  13  -1  18  -1
M  END
>  <CHROM.1>
109.76500757,-20.59358106,-33.07491086,-54.38808456,125.30725206,170.17145355
-177.18363063,171.78145700,-0.69346064,-16.30377701,-93.73684423,-0.34638648
-1.20432377,0.08439738

>  <Name>
ligand

>  <RI>
0

>  <Rbt.Current_Directory>
/home/itssahil/PROJECTS/Mol_Feturizer/New_Systems/rnas/2CKY

>  <Rbt.Executable>
rbdock ($Id: //depot/dev/client3/rdock/2013.1/src/exe/rbdock.cxx#4 $)

>  <Rbt.Library>
libRbt.so (2013.1, Build901 2013/11/27)

>  <Rbt.Parameter_File>
/export/apps/rDock/src/rDock_2013.1_src/data/scripts/dock_solv.prm

>  <Rbt.Receptor>
prm/pocket_docking_4.prm

>  <SCORE>
-20.9186

>  <SCORE.INTER>
-16.0144

>  <SCORE.INTER.CONST>
1

>  <SCORE.INTER.POLAR>
0

>  <SCORE.INTER.ROT>
8

>  <SCORE.INTER.SOLV>
19.9924

>  <SCORE.INTER.VDW>
-26.2737

>  <SCORE.INTER.norm>
-0.615938

>  <SCORE.INTRA>
-4.94612

>  <SCORE.INTRA.DIHEDRAL>
-9.11154

>  <SCORE.INTRA.DIHEDRAL.0>
16.4846

>  <SCORE.INTRA.POLAR>
0

>  <SCORE.INTRA.POLAR.0>
0

>  <SCORE.INTRA.REPUL>
0

>  <SCORE.INTRA.REPUL.0>
0

>  <SCORE.INTRA.SOLV>
-0.209

>  <SCORE.INTRA.SOLV.lig_0>
-82.6983

>  <SCORE.INTRA.VDW>
-0.285846

>  <SCORE.INTRA.VDW.0>
-2.11466

>  <SCORE.INTRA.norm>
-0.190235

>  <SCORE.RESTR>
0.0419034

>  <SCORE.RESTR.CAVITY>
0.0419034

>  <SCORE.RESTR.norm>
0.00161167

>  <SCORE.SYSTEM>
0

>  <SCORE.SYSTEM.CONST>
0

>  <SCORE.SYSTEM.DIHEDRAL>
0

>  <SCORE.SYSTEM.SOLV>
0

>  <SCORE.SYSTEM.norm>
0

>  <SCORE.heavy>
26

>  <SCORE.norm>
-0.804561

>  <RMSD>
3.157

$$$$
ligand
 OpenBabel11021811423D
libRbt.so/2013.1/901 2013/11/27
 26 27  0  0  0  0  0  0  0  0999 V2000
    4.3008  -16.9792  -88.8029 C   0  0  0  0  0  0  0  0  0  0  0  0
   -1.4770  -15.8773  -94.3654 C   0  0  0  0  0  0  0  0  0  0  0  0
    1.9456  -15.7450  -97.8315 P   0  0  2  0  0  0  0  0  0  0  0  0
    4.7006  -15.9879  -97.9790 P   0  0  2  0  0  0  0  0  0  0  0  0
   -0.6914  -17.2022  -91.6124 C   0  0  0  0  0  0  0  0  0  0  0  0
    1.6298  -16.3761  -91.3119 C   0  0  0  0  0  0  0  0  0  0  0  0
    0.6064  -17.1962  -90.8545 C   0  0  0  0  0  0  0  0  0  0  0  0
    0.8061  -17.9354  -89.6849 C   0  0  0  0  0  0  0  0  0  0  0  0
   -0.1059  -18.7443  -89.1447 N   0  0  0  0  0  0  0  0  0  0  0  0
    2.0107  -17.8435  -89.0371 N   0  0  0  0  0  0  0  0  0  0  0  0
    3.0061  -17.0428  -89.5221 C   0  0  0  0  0  0  0  0  0  0  0  0
    2.8354  -16.3023  -90.6477 N   0  0  0  0  0  0  0  0  0  0  0  0
    1.8581  -15.8432  -99.3418 O   0  5  0  0  0  0  0  0  0  0  0  0
    4.7665  -16.4772  -99.4083 O   0  0  0  0  0  0  0  0  0  0  0  0
   -0.2715  -19.5926  -94.6911 S   0  0  0  0  0  0  0  0  0  0  0  0
   -0.2245  -19.1060  -93.1363 C   0  0  0  0  0  0  0  0  0  0  0  0
    1.7891  -14.2659  -97.4884 O   0  0  0  0  0  0  0  0  0  0  0  0
    5.7969  -16.5933  -97.1263 O   0  5  0  0  0  0  0  0  0  0  0  0
   -0.6253  -17.8004  -92.9243 N   0  0  0  0  0  0  0  0  0  0  0  0
    3.3083  -16.4851  -97.3829 O   0  0  0  0  0  0  0  0  0  0  0  0
    4.8060  -14.4764  -97.9897 O   0  0  0  0  0  0  0  0  0  0  0  0
   -0.9748  -17.2465  -94.1312 C   0  0  1  0  0  0  0  0  0  0  0  0
   -0.8157  -18.1713  -95.1751 C   0  0  2  0  0  0  0  0  0  0  0  0
   -1.0475  -18.1461  -96.6658 C   0  0  0  0  0  0  0  0  0  0  0  0
   -0.4808  -16.8695  -97.2961 C   0  0  0  0  0  0  0  0  0  0  0  0
    0.9363  -16.8712  -97.1755 O   0  0  0  0  0  0  0  0  0  0  0  0
  1 11  1  0  0  0  0
  3 13  1  6  0  0  0
  3 17  2  0  0  0  0
  3 20  1  0  0  0  0
  3 26  1  0  0  0  0
  4 14  1  6  0  0  0
  4 18  1  0  0  0  0
  4 21  2  0  0  0  0
  4 20  1  0  0  0  0
  5 19  1  0  0  0  0
  5  7  1  0  0  0  0
  6  7  2  0  0  0  0
  6 12  1  0  0  0  0
  7  8  1  0  0  0  0
  8  9  1  0  0  0  0
  8 10  2  0  0  0  0
 10 11  1  0  0  0  0
 11 12  2  0  0  0  0
 15 23  1  0  0  0  0
 15 16  1  0  0  0  0
 16 19  1  0  0  0  0
 19 22  1  0  0  0  0
 22  2  1  1  0  0  0
 22 23  1  0  0  0  0
 23 24  1  1  0  0  0
 24 25  1  0  0  0  0
 25 26  1  0  0  0  0
M  CHG  2  13  -1  18  -1
M  END
>  <CHROM.1>
57.52835353,58.46025511,68.97082800,-74.70647546,-134.43494902,65.96764439
174.63892947,-65.28550541,1.64188178,-16.93211747,-94.76092832,-1.86508976
-0.33180874,-1.44043496

>  <Name>
ligand

>  <RI>
0

>  <Rbt.Current_Directory>
/home/itssahil/PROJECTS/Mol_Feturizer/New_Systems/rnas/2CKY

>  <Rbt.Executable>
rbdock ($Id: //depot/dev/client3/rdock/2013.1/src/exe/rbdock.cxx#4 $)

>  <Rbt.Library>
libRbt.so (2013.1, Build901 2013/11/27)

>  <Rbt.Parameter_File>
/export/apps/rDock/src/rDock_2013.1_src/data/scripts/dock_solv.prm

>  <Rbt.Receptor>
prm/pocket_docking_4.prm

>  <SCORE>
-17.1867

>  <SCORE.INTER>
-10.5556

>  <SCORE.INTER.CONST>
1

>  <SCORE.INTER.POLAR>
0

>  <SCORE.INTER.ROT>
8

>  <SCORE.INTER.SOLV>
17.996

>  <SCORE.INTER.VDW>
-21.969

>  <SCORE.INTER.norm>
-0.405984

>  <SCORE.INTRA>
-6.63115

>  <SCORE.INTRA.DIHEDRAL>
-11.0877

>  <SCORE.INTRA.DIHEDRAL.0>
16.4846

>  <SCORE.INTRA.POLAR>
0

>  <SCORE.INTRA.POLAR.0>
0

>  <SCORE.INTRA.REPUL>
0

>  <SCORE.INTRA.REPUL.0>
0

>  <SCORE.INTRA.SOLV>
0.486002

>  <SCORE.INTRA.SOLV.lig_0>
-82.6983

>  <SCORE.INTRA.VDW>
-1.33031

>  <SCORE.INTRA.VDW.0>
-2.11466

>  <SCORE.INTRA.norm>
-0.255044

>  <SCORE.RESTR>
0

>  <SCORE.RESTR.CAVITY>
0

>  <SCORE.RESTR.norm>
0

>  <SCORE.SYSTEM>
0

>  <SCORE.SYSTEM.CONST>
0

>  <SCORE.SYSTEM.DIHEDRAL>
0

>  <SCORE.SYSTEM.SOLV>
0

>  <SCORE.SYSTEM.norm>
0

>  <SCORE.heavy>
26

>  <SCORE.norm>
-0.661028

>  <RMSD>
3.172

$$$$
ligand
 OpenBabel11021811423D
libRbt.so/2013.1/901 2013/11/27
 26 27  0  0  0  0  0  0  0  0999 V2000
    1.1551  -18.7033  -87.2251 C   0  0  0  0  0  0  0  0  0  0  0  0
   -0.7659  -14.9729  -94.5855 C   0  0  0  0  0  0  0  0  0  0  0  0
   -0.2791  -12.3562  -97.7144 P   0  0  2  0  0  0  0  0  0  0  0  0
   -1.2047  -14.2071  -99.5550 P   0  0  2  0  0  0  0  0  0  0  0  0
    1.1112  -16.3264  -92.4418 C   0  0  0  0  0  0  0  0  0  0  0  0
   -0.0074  -17.3948  -90.5007 C   0  0  0  0  0  0  0  0  0  0  0  0
    1.1708  -16.9198  -91.0623 C   0  0  0  0  0  0  0  0  0  0  0  0
    2.3639  -17.0625  -90.3480 C   0  0  0  0  0  0  0  0  0  0  0  0
    3.5550  -16.6578  -90.7899 N   0  0  0  0  0  0  0  0  0  0  0  0
    2.3318  -17.6481  -89.1088 N   0  0  0  0  0  0  0  0  0  0  0  0
    1.1539  -18.0881  -88.5738 C   0  0  0  0  0  0  0  0  0  0  0  0
   -0.0182  -17.9759  -89.2508 N   0  0  0  0  0  0  0  0  0  0  0  0
   -1.2869  -11.3976  -98.3172 O   0  5  0  0  0  0  0  0  0  0  0  0
   -0.1804  -13.5719 -100.4683 O   0  0  0  0  0  0  0  0  0  0  0  0
    0.5480  -12.4922  -91.8501 S   0  0  0  0  0  0  0  0  0  0  0  0
    1.1082  -13.9984  -91.5785 C   0  0  0  0  0  0  0  0  0  0  0  0
    1.0894  -11.9199  -98.2307 O   0  0  0  0  0  0  0  0  0  0  0  0
   -2.5885  -13.6307  -99.7751 O   0  5  0  0  0  0  0  0  0  0  0  0
    0.6882  -14.9473  -92.4914 N   0  0  0  0  0  0  0  0  0  0  0  0
   -0.7764  -13.8524  -98.0611 O   0  0  0  0  0  0  0  0  0  0  0  0
   -1.2027  -15.7013  -99.8064 O   0  0  0  0  0  0  0  0  0  0  0  0
   -0.1159  -14.3365  -93.4219 C   0  0  1  0  0  0  0  0  0  0  0  0
   -0.2490  -12.9656  -93.1506 C   0  0  2  0  0  0  0  0  0  0  0  0
   -0.9685  -11.8140  -93.8082 C   0  0  0  0  0  0  0  0  0  0  0  0
   -0.3186  -11.4417  -95.1451 C   0  0  0  0  0  0  0  0  0  0  0  0
   -0.5695  -12.4695  -96.0956 O   0  0  0  0  0  0  0  0  0  0  0  0
  1 11  1  0  0  0  0
  3 13  1  6  0  0  0
  3 17  2  0  0  0  0
  3 20  1  0  0  0  0
  3 26  1  0  0  0  0
  4 14  1  6  0  0  0
  4 18  1  0  0  0  0
  4 21  2  0  0  0  0
  4 20  1  0  0  0  0
  5 19  1  0  0  0  0
  5  7  1  0  0  0  0
  6  7  2  0  0  0  0
  6 12  1  0  0  0  0
  7  8  1  0  0  0  0
  8  9  1  0  0  0  0
  8 10  2  0  0  0  0
 10 11  1  0  0  0  0
 11 12  2  0  0  0  0
 15 23  1  0  0  0  0
 15 16  1  0  0  0  0
 16 19  1  0  0  0  0
 19 22  1  0  0  0  0
 22  2  1  6  0  0  0
 22 23  1  0  0  0  0
 23 24  1  6  0  0  0
 24 25  1  0  0  0  0
 25 26  1  0  0  0  0
M  CHG  2  13  -1  18  -1
M  END
>  <CHROM.1>
48.12820231,40.82144350,82.33367010,42.92591653,109.78690141,70.23827634
168.83877454,-70.70776146,0.10459377,-14.43487278,-94.49489269,0.27300427
1.34313664,-3.02579272

>  <Name>
ligand

>  <RI>
0

>  <Rbt.Current_Directory>
/home/itssahil/PROJECTS/Mol_Feturizer/New_Systems/rnas/2CKY

>  <Rbt.Executable>
rbdock ($Id: //depot/dev/client3/rdock/2013.1/src/exe/rbdock.cxx#4 $)

>  <Rbt.Library>
libRbt.so (2013.1, Build901 2013/11/27)

>  <Rbt.Parameter_File>
/export/apps/rDock/src/rDock_2013.1_src/data/scripts/dock_solv.prm

>  <Rbt.Receptor>
prm/pocket_docking_6.prm

>  <SCORE>
-18.1048

>  <SCORE.INTER>
-11.9564

>  <SCORE.INTER.CONST>
1

>  <SCORE.INTER.POLAR>
0

>  <SCORE.INTER.ROT>
8

>  <SCORE.INTER.SOLV>
14.0717

>  <SCORE.INTER.VDW>
-21.5949

>  <SCORE.INTER.norm>
-0.459862

>  <SCORE.INTRA>
-6.14837

>  <SCORE.INTRA.DIHEDRAL>
-9.95193

>  <SCORE.INTRA.DIHEDRAL.0>
16.4846

>  <SCORE.INTRA.POLAR>
0

>  <SCORE.INTRA.POLAR.0>
0

>  <SCORE.INTRA.REPUL>
0

>  <SCORE.INTRA.REPUL.0>
0

>  <SCORE.INTRA.SOLV>
0.642096

>  <SCORE.INTRA.SOLV.lig_0>
-82.6983

>  <SCORE.INTRA.VDW>
-1.49346

>  <SCORE.INTRA.VDW.0>
-2.11466

>  <SCORE.INTRA.norm>
-0.236476

>  <SCORE.RESTR>
0

>  <SCORE.RESTR.CAVITY>
0

>  <SCORE.RESTR.norm>
0

>  <SCORE.SYSTEM>
0

>  <SCORE.SYSTEM.CONST>
0

>  <SCORE.SYSTEM.DIHEDRAL>
0

>  <SCORE.SYSTEM.SOLV>
0

>  <SCORE.SYSTEM.norm>
0

>  <SCORE.heavy>
26

>  <SCORE.norm>
-0.696338

>  <RMSD>
3.182

$$$$
ligand
 OpenBabel11021811423D
libRbt.so/2013.1/901 2013/11/27
 26 27  0  0  0  0  0  0  0  0999 V2000
    0.4048  -19.0478  -86.4035 C   0  0  0  0  0  0  0  0  0  0  0  0
    2.2752  -16.8987  -94.5017 C   0  0  0  0  0  0  0  0  0  0  0  0
   -0.8634  -17.3259  -97.3098 P   0  0  2  0  0  0  0  0  0  0  0  0
   -2.0464  -15.6412  -99.1626 P   0  0  2  0  0  0  0  0  0  0  0  0
    2.5995  -17.2436  -91.3828 C   0  0  0  0  0  0  0  0  0  0  0  0
    2.6815  -17.5384  -88.9198 C   0  0  0  0  0  0  0  0  0  0  0  0
    1.9936  -17.7561  -90.1065 C   0  0  0  0  0  0  0  0  0  0  0  0
    0.7487  -18.3902  -90.0580 C   0  0  0  0  0  0  0  0  0  0  0  0
   -0.0071  -18.6406  -91.1275 N   0  0  0  0  0  0  0  0  0  0  0  0
    0.2547  -18.7946  -88.8448 N   0  0  0  0  0  0  0  0  0  0  0  0
    0.9637  -18.5841  -87.6958 C   0  0  0  0  0  0  0  0  0  0  0  0
    2.1688  -17.9578  -87.7109 N   0  0  0  0  0  0  0  0  0  0  0  0
    0.0462  -18.5176  -97.5343 O   0  5  0  0  0  0  0  0  0  0  0  0
   -2.7057  -14.9758  -97.9755 O   0  0  0  0  0  0  0  0  0  0  0  0
    0.3013  -14.2375  -92.4077 S   0  0  0  0  0  0  0  0  0  0  0  0
    1.0867  -15.2753  -91.4266 C   0  0  0  0  0  0  0  0  0  0  0  0
   -2.2360  -17.8943  -96.9595 O   0  0  0  0  0  0  0  0  0  0  0  0
   -2.9388  -16.6972  -99.7824 O   0  5  0  0  0  0  0  0  0  0  0  0
    1.8061  -16.2589  -92.0787 N   0  0  0  0  0  0  0  0  0  0  0  0
   -0.7461  -16.3828  -98.6147 O   0  0  0  0  0  0  0  0  0  0  0  0
   -1.7035  -14.5695 -100.1773 O   0  0  0  0  0  0  0  0  0  0  0  0
    1.6627  -16.0836  -93.4330 C   0  0  1  0  0  0  0  0  0  0  0  0
    0.8449  -14.9779  -93.7142 C   0  0  2  0  0  0  0  0  0  0  0  0
    0.3564  -14.3066  -94.9741 C   0  0  0  0  0  0  0  0  0  0  0  0
   -0.7159  -15.1484  -95.6739 C   0  0  0  0  0  0  0  0  0  0  0  0
   -0.1047  -16.2742  -96.2919 O   0  0  0  0  0  0  0  0  0  0  0  0
  1 11  1  0  0  0  0
  3 13  1  6  0  0  0
  3 17  2  0  0  0  0
  3 20  1  0  0  0  0
  3 26  1  0  0  0  0
  4 14  1  1  0  0  0
  4 18  1  0  0  0  0
  4 21  2  0  0  0  0
  4 20  1  0  0  0  0
  5 19  1  0  0  0  0
  5  7  1  0  0  0  0
  6  7  2  0  0  0  0
  6 12  1  0  0  0  0
  7  8  1  0  0  0  0
  8  9  1  0  0  0  0
  8 10  2  0  0  0  0
 10 11  1  0  0  0  0
 11 12  2  0  0  0  0
 15 23  1  0  0  0  0
 15 16  1  0  0  0  0
 16 19  1  0  0  0  0
 19 22  1  0  0  0  0
 22  2  1  6  0  0  0
 22 23  1  0  0  0  0
 23 24  1  6  0  0  0
 24 25  1  0  0  0  0
 25 26  1  0  0  0  0
M  CHG  2  13  -1  18  -1
M  END
>  <CHROM.1>
142.35519152,38.38558080,-118.25514486,48.58723288,-107.23984045,-73.51133255
-171.64724227,-169.27809672,0.00972228,-16.60736024,-94.17944297,0.82423581
1.11997925,2.44416649

>  <Name>
ligand

>  <RI>
0

>  <Rbt.Current_Directory>
/home/itssahil/PROJECTS/Mol_Feturizer/New_Systems/rnas/2CKY

>  <Rbt.Executable>
rbdock ($Id: //depot/dev/client3/rdock/2013.1/src/exe/rbdock.cxx#4 $)

>  <Rbt.Library>
libRbt.so (2013.1, Build901 2013/11/27)

>  <Rbt.Parameter_File>
/export/apps/rDock/src/rDock_2013.1_src/data/scripts/dock_solv.prm

>  <Rbt.Receptor>
prm/pocket_docking_3.prm

>  <SCORE>
-17.6238

>  <SCORE.INTER>
-11.9735

>  <SCORE.INTER.CONST>
1

>  <SCORE.INTER.POLAR>
0

>  <SCORE.INTER.ROT>
8

>  <SCORE.INTER.SOLV>
12.8061

>  <SCORE.INTER.VDW>
-21.1844

>  <SCORE.INTER.norm>
-0.460517

>  <SCORE.INTRA>
-5.65031

>  <SCORE.INTRA.DIHEDRAL>
-8.51588

>  <SCORE.INTRA.DIHEDRAL.0>
16.4846

>  <SCORE.INTRA.POLAR>
0

>  <SCORE.INTRA.POLAR.0>
0

>  <SCORE.INTRA.REPUL>
0

>  <SCORE.INTRA.REPUL.0>
0

>  <SCORE.INTRA.SOLV>
1.46205

>  <SCORE.INTRA.SOLV.lig_0>
-82.6983

>  <SCORE.INTRA.VDW>
-2.12339

>  <SCORE.INTRA.VDW.0>
-2.11466

>  <SCORE.INTRA.norm>
-0.21732

>  <SCORE.RESTR>
0

>  <SCORE.RESTR.CAVITY>
0

>  <SCORE.RESTR.norm>
0

>  <SCORE.SYSTEM>
0

>  <SCORE.SYSTEM.CONST>
0

>  <SCORE.SYSTEM.DIHEDRAL>
0

>  <SCORE.SYSTEM.SOLV>
0

>  <SCORE.SYSTEM.norm>
0

>  <SCORE.heavy>
26

>  <SCORE.norm>
-0.677837

>  <RMSD>
3.190

$$$$
ligand
 OpenBabel11021811423D
libRbt.so/2013.1/901 2013/11/27
 26 27  0  0  0  0  0  0  0  0999 V2000
   -0.0972  -19.2852  -85.6512 C   0  0  0  0  0  0  0  0  0  0  0  0
    1.7331  -19.4810  -93.0228 C   0  0  0  0  0  0  0  0  0  0  0  0
    2.7504  -16.5492  -96.6566 P   0  0  2  0  0  0  0  0  0  0  0  0
    2.3365  -14.3794  -94.9859 P   0  0  2  0  0  0  0  0  0  0  0  0
    2.1963  -17.5164  -90.5986 C   0  0  0  0  0  0  0  0  0  0  0  0
    2.0602  -17.5411  -88.1204 C   0  0  0  0  0  0  0  0  0  0  0  0
    1.5775  -18.0283  -89.3282 C   0  0  0  0  0  0  0  0  0  0  0  0
    0.5068  -18.9270  -89.3135 C   0  0  0  0  0  0  0  0  0  0  0  0
   -0.0476  -19.4501  -90.4074 N   0  0  0  0  0  0  0  0  0  0  0  0
   -0.0203  -19.3145  -88.1088 N   0  0  0  0  0  0  0  0  0  0  0  0
    0.4887  -18.8330  -86.9356 C   0  0  0  0  0  0  0  0  0  0  0  0
    1.5187  -17.9478  -86.9198 N   0  0  0  0  0  0  0  0  0  0  0  0
    4.0026  -17.3415  -96.9762 O   0  5  0  0  0  0  0  0  0  0  0  0
    0.8734  -14.5068  -95.3460 O   0  0  0  0  0  0  0  0  0  0  0  0
   -0.4540  -16.2325  -93.1863 S   0  0  0  0  0  0  0  0  0  0  0  0
    0.4737  -16.2354  -91.8463 C   0  0  0  0  0  0  0  0  0  0  0  0
    2.4657  -15.6848  -97.8820 O   0  0  0  0  0  0  0  0  0  0  0  0
    3.0490  -13.3791  -95.8733 O   0  5  0  0  0  0  0  0  0  0  0  0
    1.2760  -17.3510  -91.6982 N   0  0  0  0  0  0  0  0  0  0  0  0
    3.0036  -15.8034  -95.2475 O   0  0  0  0  0  0  0  0  0  0  0  0
    2.4329  -13.9661  -93.5313 O   0  0  0  0  0  0  0  0  0  0  0  0
    1.0694  -18.1863  -92.7683 C   0  0  1  0  0  0  0  0  0  0  0  0
    0.1250  -17.6452  -93.6549 C   0  0  2  0  0  0  0  0  0  0  0  0
   -0.4762  -18.0814  -94.9681 C   0  0  0  0  0  0  0  0  0  0  0  0
    0.2032  -17.3832  -96.1510 C   0  0  0  0  0  0  0  0  0  0  0  0
    1.6088  -17.5878  -96.0773 O   0  0  0  0  0  0  0  0  0  0  0  0
  1 11  1  0  0  0  0
  3 13  1  6  0  0  0
  3 17  2  0  0  0  0
  3 20  1  0  0  0  0
  3 26  1  0  0  0  0
  4 14  1  6  0  0  0
  4 18  1  0  0  0  0
  4 21  2  0  0  0  0
  4 20  1  0  0  0  0
  5 19  1  0  0  0  0
  5  7  1  0  0  0  0
  6  7  2  0  0  0  0
  6 12  1  0  0  0  0
  7  8  1  0  0  0  0
  8  9  1  0  0  0  0
  8 10  2  0  0  0  0
 10 11  1  0  0  0  0
 11 12  2  0  0  0  0
 15 23  1  0  0  0  0
 15 16  1  0  0  0  0
 16 19  1  0  0  0  0
 19 22  1  0  0  0  0
 22  2  1  6  0  0  0
 22 23  1  0  0  0  0
 23 24  1  6  0  0  0
 24 25  1  0  0  0  0
 25 26  1  0  0  0  0
M  CHG  2  13  -1  18  -1
M  END
>  <CHROM.1>
147.49070876,82.27522266,-143.78846722,49.55266544,80.09460633,53.85807575
-150.90948315,-154.18960517,1.40445383,-16.92774756,-92.97806635,-2.06270793
-1.16375710,-1.68035377

>  <Name>
ligand

>  <RI>
0

>  <Rbt.Current_Directory>
/home/itssahil/PROJECTS/Mol_Feturizer/New_Systems/rnas/2CKY

>  <Rbt.Executable>
rbdock ($Id: //depot/dev/client3/rdock/2013.1/src/exe/rbdock.cxx#4 $)

>  <Rbt.Library>
libRbt.so (2013.1, Build901 2013/11/27)

>  <Rbt.Parameter_File>
/export/apps/rDock/src/rDock_2013.1_src/data/scripts/dock_solv.prm

>  <Rbt.Receptor>
prm/pocket_docking_4.prm

>  <SCORE>
-17.2964

>  <SCORE.INTER>
-12.7109

>  <SCORE.INTER.CONST>
1

>  <SCORE.INTER.POLAR>
0

>  <SCORE.INTER.ROT>
8

>  <SCORE.INTER.SOLV>
13.8664

>  <SCORE.INTER.VDW>
-22.0294

>  <SCORE.INTER.norm>
-0.48888

>  <SCORE.INTRA>
-4.60281

>  <SCORE.INTRA.DIHEDRAL>
-4.82176

>  <SCORE.INTRA.DIHEDRAL.0>
16.4846

>  <SCORE.INTRA.POLAR>
0

>  <SCORE.INTRA.POLAR.0>
0

>  <SCORE.INTRA.REPUL>
0

>  <SCORE.INTRA.REPUL.0>
0

>  <SCORE.INTRA.SOLV>
3.94368

>  <SCORE.INTRA.SOLV.lig_0>
-82.6983

>  <SCORE.INTRA.VDW>
-4.16377

>  <SCORE.INTRA.VDW.0>
-2.11466

>  <SCORE.INTRA.norm>
-0.177031

>  <SCORE.RESTR>
0.0172924

>  <SCORE.RESTR.CAVITY>
0.0172924

>  <SCORE.RESTR.norm>
0.000665093

>  <SCORE.SYSTEM>
0

>  <SCORE.SYSTEM.CONST>
0

>  <SCORE.SYSTEM.DIHEDRAL>
0

>  <SCORE.SYSTEM.SOLV>
0

>  <SCORE.SYSTEM.norm>
0

>  <SCORE.heavy>
26

>  <SCORE.norm>
-0.665246

>  <RMSD>
3.196

$$$$
ligand
 OpenBabel11021811423D
libRbt.so/2013.1/901 2013/11/27
 26 27  0  0  0  0  0  0  0  0999 V2000
    3.0486  -17.5057  -88.1008 C   0  0  0  0  0  0  0  0  0  0  0  0
   -1.2337  -15.9217  -94.3396 C   0  0  0  0  0  0  0  0  0  0  0  0
   -1.6647  -15.2133  -99.4456 P   0  0  2  0  0  0  0  0  0  0  0  0
   -1.0531  -12.5898  -98.8020 P   0  0  2  0  0  0  0  0  0  0  0  0
   -1.4215  -17.6206  -91.6883 C   0  0  0  0  0  0  0  0  0  0  0  0
   -0.3213  -18.1435  -89.5258 C   0  0  0  0  0  0  0  0  0  0  0  0
   -0.2304  -17.5433  -90.7750 C   0  0  0  0  0  0  0  0  0  0  0  0
    0.9758  -16.9440  -91.1493 C   0  0  0  0  0  0  0  0  0  0  0  0
    1.1846  -16.3501  -92.3247 N   0  0  0  0  0  0  0  0  0  0  0  0
    2.0241  -16.9497  -90.2659 N   0  0  0  0  0  0  0  0  0  0  0  0
    1.8984  -17.5311  -89.0356 C   0  0  0  0  0  0  0  0  0  0  0  0
    0.7436  -18.1335  -88.6506 N   0  0  0  0  0  0  0  0  0  0  0  0
   -0.8838  -15.1356 -100.7426 O   0  5  0  0  0  0  0  0  0  0  0  0
   -2.4872  -12.2571  -99.1475 O   0  0  0  0  0  0  0  0  0  0  0  0
   -0.6772  -19.7629  -94.8860 S   0  0  0  0  0  0  0  0  0  0  0  0
   -0.9371  -19.4369  -93.3104 C   0  0  0  0  0  0  0  0  0  0  0  0
   -3.1348  -15.0434  -99.8197 O   0  0  0  0  0  0  0  0  0  0  0  0
   -0.1282  -12.3869  -99.9848 O   0  5  0  0  0  0  0  0  0  0  0  0
   -1.1356  -18.1005  -93.0192 N   0  0  0  0  0  0  0  0  0  0  0  0
   -1.0137  -14.1396  -98.4310 O   0  0  0  0  0  0  0  0  0  0  0  0
   -0.6306  -11.7167  -97.6381 O   0  0  0  0  0  0  0  0  0  0  0  0
   -1.0630  -17.3808  -94.1863 C   0  0  1  0  0  0  0  0  0  0  0  0
   -0.8154  -18.2220  -95.2825 C   0  0  2  0  0  0  0  0  0  0  0  0
   -0.6549  -18.0166  -96.7686 C   0  0  0  0  0  0  0  0  0  0  0  0
   -1.5055  -16.8420  -97.2637 C   0  0  0  0  0  0  0  0  0  0  0  0
   -1.1584  -16.5408  -98.6097 O   0  0  0  0  0  0  0  0  0  0  0  0
  1 11  1  0  0  0  0
  3 13  1  6  0  0  0
  3 17  2  0  0  0  0
  3 20  1  0  0  0  0
  3 26  1  0  0  0  0
  4 14  1  6  0  0  0
  4 18  1  0  0  0  0
  4 21  2  0  0  0  0
  4 20  1  0  0  0  0
  5 19  1  0  0  0  0
  5  7  1  0  0  0  0
  6  7  2  0  0  0  0
  6 12  1  0  0  0  0
  7  8  1  0  0  0  0
  8  9  1  0  0  0  0
  8 10  2  0  0  0  0
 10 11  1  0  0  0  0
 11 12  2  0  0  0  0
 15 23  1  0  0  0  0
 15 16  1  0  0  0  0
 16 19  1  0  0  0  0
 19 22  1  0  0  0  0
 22  2  1  6  0  0  0
 22 23  1  0  0  0  0
 23 24  1  6  0  0  0
 24 25  1  0  0  0  0
 25 26  1  0  0  0  0
M  CHG  2  13  -1  18  -1
M  END
>  <CHROM.1>
62.74185319,77.48943907,-128.69913693,51.23460349,147.93276392,170.30462344
-170.27822269,170.00164455,-0.58887896,-16.17819659,-95.32683694,-0.98320105
-1.17002971,-0.59676914

>  <Name>
ligand

>  <RI>
0

>  <Rbt.Current_Directory>
/home/itssahil/PROJECTS/Mol_Feturizer/New_Systems/rnas/2CKY

>  <Rbt.Executable>
rbdock ($Id: //depot/dev/client3/rdock/2013.1/src/exe/rbdock.cxx#4 $)

>  <Rbt.Library>
libRbt.so (2013.1, Build901 2013/11/27)

>  <Rbt.Parameter_File>
/export/apps/rDock/src/rDock_2013.1_src/data/scripts/dock_solv.prm

>  <Rbt.Receptor>
prm/pocket_docking_4.prm

>  <SCORE>
-18.1334

>  <SCORE.INTER>
-13.8861

>  <SCORE.INTER.CONST>
1

>  <SCORE.INTER.POLAR>
0

>  <SCORE.INTER.ROT>
8

>  <SCORE.INTER.SOLV>
15.9472

>  <SCORE.INTER.VDW>
-23.5065

>  <SCORE.INTER.norm>
-0.534082

>  <SCORE.INTRA>
-4.24726

>  <SCORE.INTRA.DIHEDRAL>
-10.4509

>  <SCORE.INTRA.DIHEDRAL.0>
16.4846

>  <SCORE.INTRA.POLAR>
0

>  <SCORE.INTRA.POLAR.0>
0

>  <SCORE.INTRA.REPUL>
0

>  <SCORE.INTRA.REPUL.0>
0

>  <SCORE.INTRA.SOLV>
3.23718

>  <SCORE.INTRA.SOLV.lig_0>
-82.6983

>  <SCORE.INTRA.VDW>
-0.640413

>  <SCORE.INTRA.VDW.0>
-2.11466

>  <SCORE.INTRA.norm>
-0.163356

>  <SCORE.RESTR>
0

>  <SCORE.RESTR.CAVITY>
0

>  <SCORE.RESTR.norm>
0

>  <SCORE.SYSTEM>
0

>  <SCORE.SYSTEM.CONST>
0

>  <SCORE.SYSTEM.DIHEDRAL>
0

>  <SCORE.SYSTEM.SOLV>
0

>  <SCORE.SYSTEM.norm>
0

>  <SCORE.heavy>
26

>  <SCORE.norm>
-0.697438

>  <RMSD>
3.200

$$$$
ligand
 OpenBabel11021811423D
libRbt.so/2013.1/901 2013/11/27
 26 27  0  0  0  0  0  0  0  0999 V2000
   -0.5165  -19.4319  -86.2310 C   0  0  0  0  0  0  0  0  0  0  0  0
    1.3916  -15.1215  -92.0158 C   0  0  0  0  0  0  0  0  0  0  0  0
    3.5052  -15.6831  -96.4576 P   0  0  2  0  0  0  0  0  0  0  0  0
    5.3707  -14.2331  -97.9025 P   0  0  2  0  0  0  0  0  0  0  0  0
    2.9103  -17.2857  -90.2949 C   0  0  0  0  0  0  0  0  0  0  0  0
    2.3764  -17.8461  -87.9367 C   0  0  0  0  0  0  0  0  0  0  0  0
    1.9874  -17.8820  -89.2695 C   0  0  0  0  0  0  0  0  0  0  0  0
    0.7378  -18.4184  -89.5933 C   0  0  0  0  0  0  0  0  0  0  0  0
    0.2530  -18.4939  -90.8331 N   0  0  0  0  0  0  0  0  0  0  0  0
   -0.0559  -18.9097  -88.5893 N   0  0  0  0  0  0  0  0  0  0  0  0
    0.3623  -18.8785  -87.2888 C   0  0  0  0  0  0  0  0  0  0  0  0
    1.5649  -18.3503  -86.9431 N   0  0  0  0  0  0  0  0  0  0  0  0
    4.1740  -16.8943  -95.8383 O   0  5  0  0  0  0  0  0  0  0  0  0
    5.9829  -15.5453  -98.3386 O   0  0  0  0  0  0  0  0  0  0  0  0
    1.9918  -18.5020  -93.9068 S   0  0  0  0  0  0  0  0  0  0  0  0
    2.6171  -18.5643  -92.4030 C   0  0  0  0  0  0  0  0  0  0  0  0
    2.8838  -16.1596  -97.7678 O   0  0  0  0  0  0  0  0  0  0  0  0
    6.4280  -13.1829  -97.6289 O   0  5  0  0  0  0  0  0  0  0  0  0
    2.4605  -17.4089  -91.6609 N   0  0  0  0  0  0  0  0  0  0  0  0
    4.6120  -14.5101  -96.5282 O   0  0  0  0  0  0  0  0  0  0  0  0
    4.4239  -13.7668  -98.9896 O   0  0  0  0  0  0  0  0  0  0  0  0
    1.7870  -16.4855  -92.4219 C   0  0  1  0  0  0  0  0  0  0  0  0
    1.4783  -17.0054  -93.6888 C   0  0  2  0  0  0  0  0  0  0  0  0
    0.7594  -16.4841  -94.9085 C   0  0  0  0  0  0  0  0  0  0  0  0
    1.1630  -15.0384  -95.2175 C   0  0  0  0  0  0  0  0  0  0  0  0
    2.5799  -14.9515  -95.3059 O   0  0  0  0  0  0  0  0  0  0  0  0
  1 11  1  0  0  0  0
  3 13  1  1  0  0  0
  3 17  2  0  0  0  0
  3 20  1  0  0  0  0
  3 26  1  0  0  0  0
  4 14  1  6  0  0  0
  4 18  1  0  0  0  0
  4 21  2  0  0  0  0
  4 20  1  0  0  0  0
  5 19  1  0  0  0  0
  5  7  1  0  0  0  0
  6  7  2  0  0  0  0
  6 12  1  0  0  0  0
  7  8  1  0  0  0  0
  8  9  1  0  0  0  0
  8 10  2  0  0  0  0
 10 11  1  0  0  0  0
 11 12  2  0  0  0  0
 15 23  1  0  0  0  0
 15 16  1  0  0  0  0
 16 19  1  0  0  0  0
 19 22  1  0  0  0  0
 22  2  1  1  0  0  0
 22 23  1  0  0  0  0
 23 24  1  1  0  0  0
 24 25  1  0  0  0  0
 25 26  1  0  0  0  0
M  CHG  2  13  -1  18  -1
M  END
>  <CHROM.1>
99.39512039,-80.57751983,177.65918255,-54.62552076,-137.44851834,53.37044624
65.37833870,-103.64629181,2.65979925,-16.57144401,-93.58582610,-2.00878185
-0.55900999,-1.41968947

>  <Name>
ligand

>  <RI>
0

>  <Rbt.Current_Directory>
/home/itssahil/PROJECTS/Mol_Feturizer/New_Systems/rnas/2CKY

>  <Rbt.Executable>
rbdock ($Id: //depot/dev/client3/rdock/2013.1/src/exe/rbdock.cxx#4 $)

>  <Rbt.Library>
libRbt.so (2013.1, Build901 2013/11/27)

>  <Rbt.Parameter_File>
/export/apps/rDock/src/rDock_2013.1_src/data/scripts/dock_solv.prm

>  <Rbt.Receptor>
prm/pocket_docking_5.prm

>  <SCORE>
-23.4008

>  <SCORE.INTER>
-20.2148

>  <SCORE.INTER.CONST>
1

>  <SCORE.INTER.POLAR>
0

>  <SCORE.INTER.ROT>
8

>  <SCORE.INTER.SOLV>
20.2341

>  <SCORE.INTER.VDW>
-29.1546

>  <SCORE.INTER.norm>
-0.777493

>  <SCORE.INTRA>
-3.18603

>  <SCORE.INTRA.DIHEDRAL>
-8.23443

>  <SCORE.INTRA.DIHEDRAL.0>
16.4846

>  <SCORE.INTRA.POLAR>
0

>  <SCORE.INTRA.POLAR.0>
0

>  <SCORE.INTRA.REPUL>
0

>  <SCORE.INTRA.REPUL.0>
0

>  <SCORE.INTRA.SOLV>
6.04753

>  <SCORE.INTRA.SOLV.lig_0>
-82.6983

>  <SCORE.INTRA.VDW>
-2.09258

>  <SCORE.INTRA.VDW.0>
-2.11466

>  <SCORE.INTRA.norm>
-0.122539

>  <SCORE.RESTR>
0

>  <SCORE.RESTR.CAVITY>
0

>  <SCORE.RESTR.norm>
0

>  <SCORE.SYSTEM>
0

>  <SCORE.SYSTEM.CONST>
0

>  <SCORE.SYSTEM.DIHEDRAL>
0

>  <SCORE.SYSTEM.SOLV>
0

>  <SCORE.SYSTEM.norm>
0

>  <SCORE.heavy>
26

>  <SCORE.norm>
-0.900033

>  <RMSD>
3.221

$$$$
ligand
 OpenBabel11021811423D
libRbt.so/2013.1/901 2013/11/27
 26 27  0  0  0  0  0  0  0  0999 V2000
    0.4538  -18.8434  -86.5203 C   0  0  0  0  0  0  0  0  0  0  0  0
    3.1067  -15.3155  -93.6517 C   0  0  0  0  0  0  0  0  0  0  0  0
    4.7812  -15.5571  -97.5931 P   0  0  2  0  0  0  0  0  0  0  0  0
    4.2322  -12.9186  -96.9548 P   0  0  2  0  0  0  0  0  0  0  0  0
    3.4750  -17.0778  -91.0613 C   0  0  0  0  0  0  0  0  0  0  0  0
    1.3871  -17.8763  -89.9825 C   0  0  0  0  0  0  0  0  0  0  0  0
    2.7193  -17.5116  -89.8367 C   0  0  0  0  0  0  0  0  0  0  0  0
    3.3128  -17.6148  -88.5752 C   0  0  0  0  0  0  0  0  0  0  0  0
    4.5842  -17.3066  -88.3175 N   0  0  0  0  0  0  0  0  0  0  0  0
    2.5577  -18.0534  -87.5184 N   0  0  0  0  0  0  0  0  0  0  0  0
    1.2434  -18.3866  -87.6888 C   0  0  0  0  0  0  0  0  0  0  0  0
    0.6445  -18.3102  -88.9054 N   0  0  0  0  0  0  0  0  0  0  0  0
    5.9109  -16.5404  -97.3587 O   0  5  0  0  0  0  0  0  0  0  0  0
    4.3419  -12.5273  -98.4113 O   0  0  0  0  0  0  0  0  0  0  0  0
    1.6709  -18.9462  -93.9978 S   0  0  0  0  0  0  0  0  0  0  0  0
    2.3361  -18.7278  -92.5261 C   0  0  0  0  0  0  0  0  0  0  0  0
    4.6280  -15.4331  -99.1067 O   0  0  0  0  0  0  0  0  0  0  0  0
    4.7886  -11.8458  -96.0409 O   0  5  0  0  0  0  0  0  0  0  0  0
    2.8787  -17.4744  -92.3145 N   0  0  0  0  0  0  0  0  0  0  0  0
    5.1293  -14.2212  -96.7563 O   0  0  0  0  0  0  0  0  0  0  0  0
    2.7730  -13.1815  -96.6427 O   0  0  0  0  0  0  0  0  0  0  0  0
    2.6969  -16.7198  -93.4472 C   0  0  1  0  0  0  0  0  0  0  0  0
    2.0277  -17.4534  -94.4394 C   0  0  2  0  0  0  0  0  0  0  0  0
    1.5500  -17.1620  -95.8406 C   0  0  0  0  0  0  0  0  0  0  0  0
    2.7134  -17.1675  -96.8381 C   0  0  0  0  0  0  0  0  0  0  0  0
    3.5013  -15.9980  -96.6523 O   0  0  0  0  0  0  0  0  0  0  0  0
  1 11  1  0  0  0  0
  3 13  1  1  0  0  0
  3 17  2  0  0  0  0
  3 20  1  0  0  0  0
  3 26  1  0  0  0  0
  4 14  1  6  0  0  0
  4 18  1  0  0  0  0
  4 21  2  0  0  0  0
  4 20  1  0  0  0  0
  5 19  1  0  0  0  0
  5  7  1  0  0  0  0
  6  7  2  0  0  0  0
  6 12  1  0  0  0  0
  7  8  1  0  0  0  0
  8  9  1  0  0  0  0
  8 10  2  0  0  0  0
 10 11  1  0  0  0  0
 11 12  2  0  0  0  0
 15 23  1  0  0  0  0
 15 16  1  0  0  0  0
 16 19  1  0  0  0  0
 19 22  1  0  0  0  0
 22  2  1  1  0  0  0
 22 23  1  0  0  0  0
 23 24  1  1  0  0  0
 24 25  1  0  0  0  0
 25 26  1  0  0  0  0
M  CHG  2  13  -1  18  -1
M  END
>  <CHROM.1>
171.61589962,-42.26808809,-18.52506175,-60.39592257,-104.22169957,-72.87326391
-175.15101749,-68.62911125,3.18037616,-16.28020552,-93.88839919,-2.18282043
-1.12860235,-1.71015523

>  <Name>
ligand

>  <RI>
0

>  <Rbt.Current_Directory>
/home/itssahil/PROJECTS/Mol_Feturizer/New_Systems/rnas/2CKY

>  <Rbt.Executable>
rbdock ($Id: //depot/dev/client3/rdock/2013.1/src/exe/rbdock.cxx#4 $)

>  <Rbt.Library>
libRbt.so (2013.1, Build901 2013/11/27)

>  <Rbt.Parameter_File>
/export/apps/rDock/src/rDock_2013.1_src/data/scripts/dock_solv.prm

>  <Rbt.Receptor>
prm/pocket_docking_5.prm

>  <SCORE>
-25.3944

>  <SCORE.INTER>
-18.7903

>  <SCORE.INTER.CONST>
1

>  <SCORE.INTER.POLAR>
0

>  <SCORE.INTER.ROT>
8

>  <SCORE.INTER.SOLV>
25.2197

>  <SCORE.INTER.VDW>
-29.8667

>  <SCORE.INTER.norm>
-0.722702

>  <SCORE.INTRA>
-6.60418

>  <SCORE.INTRA.DIHEDRAL>
-10.6352

>  <SCORE.INTRA.DIHEDRAL.0>
16.4846

>  <SCORE.INTRA.POLAR>
0

>  <SCORE.INTRA.POLAR.0>
0

>  <SCORE.INTRA.REPUL>
0

>  <SCORE.INTRA.REPUL.0>
0

>  <SCORE.INTRA.SOLV>
0.742248

>  <SCORE.INTRA.SOLV.lig_0>
-82.6983

>  <SCORE.INTRA.VDW>
-1.65769

>  <SCORE.INTRA.VDW.0>
-2.11466

>  <SCORE.INTRA.norm>
-0.254007

>  <SCORE.RESTR>
0

>  <SCORE.RESTR.CAVITY>
0

>  <SCORE.RESTR.norm>
0

>  <SCORE.SYSTEM>
0

>  <SCORE.SYSTEM.CONST>
0

>  <SCORE.SYSTEM.DIHEDRAL>
0

>  <SCORE.SYSTEM.SOLV>
0

>  <SCORE.SYSTEM.norm>
0

>  <SCORE.heavy>
26

>  <SCORE.norm>
-0.976709

>  <RMSD>
3.223

$$$$
ligand
 OpenBabel11021811423D
libRbt.so/2013.1/901 2013/11/27
 26 27  0  0  0  0  0  0  0  0999 V2000
    0.2694  -19.0027  -86.2822 C   0  0  0  0  0  0  0  0  0  0  0  0
    2.0013  -15.3182  -93.4633 C   0  0  0  0  0  0  0  0  0  0  0  0
    4.3076  -16.0371  -97.4263 P   0  0  2  0  0  0  0  0  0  0  0  0
    4.2438  -13.2701  -97.5256 P   0  0  2  0  0  0  0  0  0  0  0  0
    2.8936  -17.0776  -91.0016 C   0  0  0  0  0  0  0  0  0  0  0  0
    2.8616  -17.6939  -88.5975 C   0  0  0  0  0  0  0  0  0  0  0  0
    2.1682  -17.6105  -89.7981 C   0  0  0  0  0  0  0  0  0  0  0  0
    0.8180  -17.9719  -89.8237 C   0  0  0  0  0  0  0  0  0  0  0  0
    0.0491  -17.9211  -90.9118 N   0  0  0  0  0  0  0  0  0  0  0  0
    0.2258  -18.4154  -88.6696 N   0  0  0  0  0  0  0  0  0  0  0  0
    0.9391  -18.5053  -87.5075 C   0  0  0  0  0  0  0  0  0  0  0  0
    2.2480  -18.1474  -87.4495 N   0  0  0  0  0  0  0  0  0  0  0  0
    5.6334  -16.6099  -96.9654 O   0  5  0  0  0  0  0  0  0  0  0  0
    5.6172  -13.2759  -98.1583 O   0  0  0  0  0  0  0  0  0  0  0  0
    1.5519  -19.1701  -94.0331 S   0  0  0  0  0  0  0  0  0  0  0  0
    2.1809  -18.8755  -92.5588 C   0  0  0  0  0  0  0  0  0  0  0  0
    4.3442  -16.0460  -98.9522 O   0  0  0  0  0  0  0  0  0  0  0  0
    4.0753  -12.1164  -96.5580 O   0  5  0  0  0  0  0  0  0  0  0  0
    2.3841  -17.5391  -92.2708 N   0  0  0  0  0  0  0  0  0  0  0  0
    4.1164  -14.6171  -96.6827 O   0  0  0  0  0  0  0  0  0  0  0  0
    3.2118  -13.1934  -98.6324 O   0  0  0  0  0  0  0  0  0  0  0  0
    1.9781  -16.7906  -93.3480 C   0  0  1  0  0  0  0  0  0  0  0  0
    1.4938  -17.6118  -94.3784 C   0  0  2  0  0  0  0  0  0  0  0  0
    0.9150  -17.3704  -95.7507 C   0  0  0  0  0  0  0  0  0  0  0  0
    1.7490  -16.3524  -96.5358 C   0  0  0  0  0  0  0  0  0  0  0  0
    3.0964  -16.8017  -96.6103 O   0  0  0  0  0  0  0  0  0  0  0  0
  1 11  1  0  0  0  0
  3 13  1  1  0  0  0
  3 17  2  0  0  0  0
  3 20  1  0  0  0  0
  3 26  1  0  0  0  0
  4 14  1  6  0  0  0
  4 18  1  0  0  0  0
  4 21  2  0  0  0  0
  4 20  1  0  0  0  0
  5 19  1  0  0  0  0
  5  7  1  0  0  0  0
  6  7  2  0  0  0  0
  6 12  1  0  0  0  0
  7  8  1  0  0  0  0
  8  9  1  0  0  0  0
  8 10  2  0  0  0  0
 10 11  1  0  0  0  0
 11 12  2  0  0  0  0
 15 23  1  0  0  0  0
 15 16  1  0  0  0  0
 16 19  1  0  0  0  0
 19 22  1  0  0  0  0
 22  2  1  1  0  0  0
 22 23  1  0  0  0  0
 23 24  1  1  0  0  0
 24 25  1  0  0  0  0
 25 26  1  0  0  0  0
M  CHG  2  13  -1  18  -1
M  END
>  <CHROM.1>
108.56489991,-51.31240262,153.95597833,-57.65833926,-134.34681941,56.32063698
177.00780222,165.09815532,2.69299292,-16.50733843,-94.01268464,-2.31405002
-1.11374295,-1.84483903

>  <Name>
ligand

>  <RI>
0

>  <Rbt.Current_Directory>
/home/itssahil/PROJECTS/Mol_Feturizer/New_Systems/rnas/2CKY

>  <Rbt.Executable>
rbdock ($Id: //depot/dev/client3/rdock/2013.1/src/exe/rbdock.cxx#4 $)

>  <Rbt.Library>
libRbt.so (2013.1, Build901 2013/11/27)

>  <Rbt.Parameter_File>
/export/apps/rDock/src/rDock_2013.1_src/data/scripts/dock_solv.prm

>  <Rbt.Receptor>
prm/pocket_docking_4.prm

>  <SCORE>
-25.5919

>  <SCORE.INTER>
-20.8552

>  <SCORE.INTER.CONST>
1

>  <SCORE.INTER.POLAR>
0

>  <SCORE.INTER.ROT>
8

>  <SCORE.INTER.SOLV>
13.1523

>  <SCORE.INTER.VDW>
-27.2209

>  <SCORE.INTER.norm>
-0.802123

>  <SCORE.INTRA>
-4.77183

>  <SCORE.INTRA.DIHEDRAL>
-9.57988

>  <SCORE.INTRA.DIHEDRAL.0>
16.4846

>  <SCORE.INTRA.POLAR>
0

>  <SCORE.INTRA.POLAR.0>
0

>  <SCORE.INTRA.REPUL>
0

>  <SCORE.INTRA.REPUL.0>
0

>  <SCORE.INTRA.SOLV>
3.44229

>  <SCORE.INTRA.SOLV.lig_0>
-82.6983

>  <SCORE.INTRA.VDW>
-1.70303

>  <SCORE.INTRA.VDW.0>
-2.11466

>  <SCORE.INTRA.norm>
-0.183532

>  <SCORE.RESTR>
0.0351017

>  <SCORE.RESTR.CAVITY>
0.0351017

>  <SCORE.RESTR.norm>
0.00135007

>  <SCORE.SYSTEM>
0

>  <SCORE.SYSTEM.CONST>
0

>  <SCORE.SYSTEM.DIHEDRAL>
0

>  <SCORE.SYSTEM.SOLV>
0

>  <SCORE.SYSTEM.norm>
0

>  <SCORE.heavy>
26

>  <SCORE.norm>
-0.984304

>  <RMSD>
3.224

$$$$
ligand
 OpenBabel11021811423D
libRbt.so/2013.1/901 2013/11/27
 26 27  0  0  0  0  0  0  0  0999 V2000
    0.0950  -18.9893  -86.0229 C   0  0  0  0  0  0  0  0  0  0  0  0
    0.6432  -18.1662  -93.8618 C   0  0  0  0  0  0  0  0  0  0  0  0
   -3.0959  -15.1134  -97.0686 P   0  0  2  0  0  0  0  0  0  0  0  0
   -2.4038  -12.5019  -96.4588 P   0  0  2  0  0  0  0  0  0  0  0  0
    2.1919  -17.5960  -91.1734 C   0  0  0  0  0  0  0  0  0  0  0  0
    0.4168  -18.4952  -89.6897 C   0  0  0  0  0  0  0  0  0  0  0  0
    1.6771  -17.9219  -89.7995 C   0  0  0  0  0  0  0  0  0  0  0  0
    2.4314  -17.7237  -88.6393 C   0  0  0  0  0  0  0  0  0  0  0  0
    3.6555  -17.1954  -88.6223 N   0  0  0  0  0  0  0  0  0  0  0  0
    1.8971  -18.0825  -87.4288 N   0  0  0  0  0  0  0  0  0  0  0  0
    0.6461  -18.6266  -87.3504 C   0  0  0  0  0  0  0  0  0  0  0  0
   -0.1035  -18.8441  -88.4619 N   0  0  0  0  0  0  0  0  0  0  0  0
   -2.4771  -16.2602  -97.8432 O   0  5  0  0  0  0  0  0  0  0  0  0
   -3.0401  -12.6699  -95.0974 O   0  0  0  0  0  0  0  0  0  0  0  0
    0.2681  -14.4821  -92.5774 S   0  0  0  0  0  0  0  0  0  0  0  0
    1.1915  -15.3563  -91.5579 C   0  0  0  0  0  0  0  0  0  0  0  0
   -4.4045  -14.7741  -97.7774 O   0  0  0  0  0  0  0  0  0  0  0  0
   -3.3849  -11.9521  -97.4741 O   0  5  0  0  0  0  0  0  0  0  0  0
    1.3729  -16.6761  -91.9259 N   0  0  0  0  0  0  0  0  0  0  0  0
   -1.9765  -13.9560  -96.9530 O   0  0  0  0  0  0  0  0  0  0  0  0
   -1.2113  -11.5783  -96.3145 O   0  0  0  0  0  0  0  0  0  0  0  0
    0.7027  -16.9002  -93.1033 C   0  0  1  0  0  0  0  0  0  0  0  0
    0.0601  -15.7339  -93.5472 C   0  0  2  0  0  0  0  0  0  0  0  0
   -0.7853  -15.3723  -94.7435 C   0  0  0  0  0  0  0  0  0  0  0  0
   -2.0552  -16.2276  -94.8070 C   0  0  0  0  0  0  0  0  0  0  0  0
   -3.0838  -15.4989  -95.4658 O   0  0  0  0  0  0  0  0  0  0  0  0
  1 11  1  0  0  0  0
  3 13  1  6  0  0  0
  3 17  2  0  0  0  0
  3 20  1  0  0  0  0
  3 26  1  0  0  0  0
  4 14  1  1  0  0  0
  4 18  1  0  0  0  0
  4 21  2  0  0  0  0
  4 20  1  0  0  0  0
  5 19  1  0  0  0  0
  5  7  1  0  0  0  0
  6  7  2  0  0  0  0
  6 12  1  0  0  0  0
  7  8  1  0  0  0  0
  8  9  1  0  0  0  0
  8 10  2  0  0  0  0
 10 11  1  0  0  0  0
 11 12  2  0  0  0  0
 15 23  1  0  0  0  0
 15 16  1  0  0  0  0
 16 19  1  0  0  0  0
 19 22  1  0  0  0  0
 22  2  1  6  0  0  0
 22 23  1  0  0  0  0
 23 24  1  6  0  0  0
 24 25  1  0  0  0  0
 25 26  1  0  0  0  0
M  CHG  2  13  -1  18  -1
M  END
>  <CHROM.1>
167.50020082,65.95443013,59.21438271,57.39077837,-120.29808338,151.80639648
69.06859842,35.88977150,-0.69778884,-15.67785548,-93.33649434,0.83441211
0.90175784,2.67153912

>  <Name>
ligand

>  <RI>
0

>  <Rbt.Current_Directory>
/home/itssahil/PROJECTS/Mol_Feturizer/New_Systems/rnas/2CKY

>  <Rbt.Executable>
rbdock ($Id: //depot/dev/client3/rdock/2013.1/src/exe/rbdock.cxx#4 $)

>  <Rbt.Library>
libRbt.so (2013.1, Build901 2013/11/27)

>  <Rbt.Parameter_File>
/export/apps/rDock/src/rDock_2013.1_src/data/scripts/dock_solv.prm

>  <Rbt.Receptor>
prm/pocket_docking_6.prm

>  <SCORE>
-26.147

>  <SCORE.INTER>
-20.7017

>  <SCORE.INTER.CONST>
1

>  <SCORE.INTER.POLAR>
0

>  <SCORE.INTER.ROT>
8

>  <SCORE.INTER.SOLV>
24.6205

>  <SCORE.INTER.VDW>
-30.9413

>  <SCORE.INTER.norm>
-0.796219

>  <SCORE.INTRA>
-5.44528

>  <SCORE.INTRA.DIHEDRAL>
-8.00748

>  <SCORE.INTRA.DIHEDRAL.0>
16.4846

>  <SCORE.INTRA.POLAR>
0

>  <SCORE.INTRA.POLAR.0>
0

>  <SCORE.INTRA.REPUL>
0

>  <SCORE.INTRA.REPUL.0>
0

>  <SCORE.INTRA.SOLV>
0.468932

>  <SCORE.INTRA.SOLV.lig_0>
-82.6983

>  <SCORE.INTRA.VDW>
-1.67601

>  <SCORE.INTRA.VDW.0>
-2.11466

>  <SCORE.INTRA.norm>
-0.209434

>  <SCORE.RESTR>
0

>  <SCORE.RESTR.CAVITY>
0

>  <SCORE.RESTR.norm>
0

>  <SCORE.SYSTEM>
0

>  <SCORE.SYSTEM.CONST>
0

>  <SCORE.SYSTEM.DIHEDRAL>
0

>  <SCORE.SYSTEM.SOLV>
0

>  <SCORE.SYSTEM.norm>
0

>  <SCORE.heavy>
26

>  <SCORE.norm>
-1.00565

>  <RMSD>
3.259

$$$$
ligand
 OpenBabel11021811423D
libRbt.so/2013.1/901 2013/11/27
 26 27  0  0  0  0  0  0  0  0999 V2000
   -0.0418  -19.1407  -86.0557 C   0  0  0  0  0  0  0  0  0  0  0  0
    1.4282  -18.1370  -93.6972 C   0  0  0  0  0  0  0  0  0  0  0  0
   -2.1170  -16.2780  -97.3941 P   0  0  2  0  0  0  0  0  0  0  0  0
   -2.9673  -13.8681  -98.4619 P   0  0  2  0  0  0  0  0  0  0  0  0
    2.5017  -17.2986  -90.8519 C   0  0  0  0  0  0  0  0  0  0  0  0
    2.4150  -17.6260  -88.3931 C   0  0  0  0  0  0  0  0  0  0  0  0
    1.8059  -17.8203  -89.6260 C   0  0  0  0  0  0  0  0  0  0  0  0
    0.5537  -18.4401  -89.6696 C   0  0  0  0  0  0  0  0  0  0  0  0
   -0.1313  -18.6678  -90.7907 N   0  0  0  0  0  0  0  0  0  0  0  0
   -0.0250  -18.8543  -88.4979 N   0  0  0  0  0  0  0  0  0  0  0  0
    0.6077  -18.6670  -87.3013 C   0  0  0  0  0  0  0  0  0  0  0  0
    1.8178  -18.0549  -87.2271 N   0  0  0  0  0  0  0  0  0  0  0  0
   -0.6733  -15.9788  -97.7464 O   0  5  0  0  0  0  0  0  0  0  0  0
   -3.5437  -12.5698  -97.9435 O   0  0  0  0  0  0  0  0  0  0  0  0
    0.3581  -14.5265  -92.6096 S   0  0  0  0  0  0  0  0  0  0  0  0
    1.2513  -15.2375  -91.4464 C   0  0  0  0  0  0  0  0  0  0  0  0
   -2.6315  -17.2321  -98.4687 O   0  0  0  0  0  0  0  0  0  0  0  0
   -3.8760  -14.5178  -99.4854 O   0  5  0  0  0  0  0  0  0  0  0  0
    1.6682  -16.5224  -91.7386 N   0  0  0  0  0  0  0  0  0  0  0  0
   -2.8695  -14.8606  -97.2183 O   0  0  0  0  0  0  0  0  0  0  0  0
   -1.6076  -13.5768  -99.0638 O   0  0  0  0  0  0  0  0  0  0  0  0
    1.2024  -16.8631  -92.9846 C   0  0  1  0  0  0  0  0  0  0  0  0
    0.4649  -15.8119  -93.5516 C   0  0  2  0  0  0  0  0  0  0  0  0
   -0.2543  -15.5994  -94.8608 C   0  0  0  0  0  0  0  0  0  0  0  0
   -1.7562  -15.8700  -94.7216 C   0  0  0  0  0  0  0  0  0  0  0  0
   -2.1911  -16.6897  -95.7995 O   0  0  0  0  0  0  0  0  0  0  0  0
  1 11  1  0  0  0  0
  3 13  1  6  0  0  0
  3 17  2  0  0  0  0
  3 20  1  0  0  0  0
  3 26  1  0  0  0  0
  4 14  1  1  0  0  0
  4 18  1  0  0  0  0
  4 21  2  0  0  0  0
  4 20  1  0  0  0  0
  5 19  1  0  0  0  0
  5  7  1  0  0  0  0
  6  7  2  0  0  0  0
  6 12  1  0  0  0  0
  7  8  1  0  0  0  0
  8  9  1  0  0  0  0
  8 10  2  0  0  0  0
 10 11  1  0  0  0  0
 11 12  2  0  0  0  0
 15 23  1  0  0  0  0
 15 16  1  0  0  0  0
 16 19  1  0  0  0  0
 19 22  1  0  0  0  0
 22  2  1  6  0  0  0
 22 23  1  0  0  0  0
 23 24  1  6  0  0  0
 24 25  1  0  0  0  0
 25 26  1  0  0  0  0
M  CHG  2  13  -1  18  -1
M  END
>  <CHROM.1>
62.00322742,73.33793686,-131.01327114,-172.28309114,-82.69361859,-133.19724705
-61.55145396,57.98991971,-0.59820472,-16.22809894,-93.87385231,0.95699125
0.91075026,2.41565476

>  <Name>
ligand

>  <RI>
0

>  <Rbt.Current_Directory>
/home/itssahil/PROJECTS/Mol_Feturizer/New_Systems/rnas/2CKY

>  <Rbt.Executable>
rbdock ($Id: //depot/dev/client3/rdock/2013.1/src/exe/rbdock.cxx#4 $)

>  <Rbt.Library>
libRbt.so (2013.1, Build901 2013/11/27)

>  <Rbt.Parameter_File>
/export/apps/rDock/src/rDock_2013.1_src/data/scripts/dock_solv.prm

>  <Rbt.Receptor>
prm/pocket_docking_4.prm

>  <SCORE>
-22.1903

>  <SCORE.INTER>
-20.7125

>  <SCORE.INTER.CONST>
1

>  <SCORE.INTER.POLAR>
0

>  <SCORE.INTER.ROT>
8

>  <SCORE.INTER.SOLV>
13.9121

>  <SCORE.INTER.VDW>
-27.379

>  <SCORE.INTER.norm>
-0.796635

>  <SCORE.INTRA>
-1.47777

>  <SCORE.INTRA.DIHEDRAL>
-6.31684

>  <SCORE.INTRA.DIHEDRAL.0>
16.4846

>  <SCORE.INTRA.POLAR>
0

>  <SCORE.INTRA.POLAR.0>
0

>  <SCORE.INTRA.REPUL>
0

>  <SCORE.INTRA.REPUL.0>
0

>  <SCORE.INTRA.SOLV>
6.11755

>  <SCORE.INTRA.SOLV.lig_0>
-82.6983

>  <SCORE.INTRA.VDW>
-1.37812

>  <SCORE.INTRA.VDW.0>
-2.11466

>  <SCORE.INTRA.norm>
-0.0568371

>  <SCORE.RESTR>
0

>  <SCORE.RESTR.CAVITY>
0

>  <SCORE.RESTR.norm>
0

>  <SCORE.SYSTEM>
0

>  <SCORE.SYSTEM.CONST>
0

>  <SCORE.SYSTEM.DIHEDRAL>
0

>  <SCORE.SYSTEM.SOLV>
0

>  <SCORE.SYSTEM.norm>
0

>  <SCORE.heavy>
26

>  <SCORE.norm>
-0.853472

>  <RMSD>
3.262

$$$$
ligand
 OpenBabel11021811423D
libRbt.so/2013.1/901 2013/11/27
 26 27  0  0  0  0  0  0  0  0999 V2000
    4.3084  -17.0642  -88.6973 C   0  0  0  0  0  0  0  0  0  0  0  0
   -1.1744  -15.8660  -94.0870 C   0  0  0  0  0  0  0  0  0  0  0  0
    1.8238  -15.6815  -97.6278 P   0  0  2  0  0  0  0  0  0  0  0  0
    0.1468  -13.4854  -97.8161 P   0  0  2  0  0  0  0  0  0  0  0  0
   -0.7890  -17.3102  -91.3090 C   0  0  0  0  0  0  0  0  0  0  0  0
    1.5655  -16.5421  -91.1462 C   0  0  0  0  0  0  0  0  0  0  0  0
    0.5356  -17.2963  -90.5991 C   0  0  0  0  0  0  0  0  0  0  0  0
    0.7561  -17.9624  -89.3900 C   0  0  0  0  0  0  0  0  0  0  0  0
   -0.1592  -18.7036  -88.7648 N   0  0  0  0  0  0  0  0  0  0  0  0
    1.9862  -17.8670  -88.7923 N   0  0  0  0  0  0  0  0  0  0  0  0
    2.9866  -17.1331  -89.3648 C   0  0  0  0  0  0  0  0  0  0  0  0
    2.7966  -16.4637  -90.5312 N   0  0  0  0  0  0  0  0  0  0  0  0
    3.0919  -16.0511  -96.8839 O   0  5  0  0  0  0  0  0  0  0  0  0
   -1.0517  -14.3886  -97.6309 O   0  0  0  0  0  0  0  0  0  0  0  0
   -0.6631  -19.7409  -94.3822 S   0  0  0  0  0  0  0  0  0  0  0  0
   -0.6059  -19.2695  -92.8232 C   0  0  0  0  0  0  0  0  0  0  0  0
    2.1279  -15.8673  -99.1120 O   0  0  0  0  0  0  0  0  0  0  0  0
    0.4928  -13.3032  -99.2799 O   0  5  0  0  0  0  0  0  0  0  0  0
   -0.7682  -17.9120  -92.6208 N   0  0  0  0  0  0  0  0  0  0  0  0
    1.3855  -14.2118  -97.1240 O   0  0  0  0  0  0  0  0  0  0  0  0
   -0.1612  -12.1498  -97.1703 O   0  0  0  0  0  0  0  0  0  0  0  0
   -0.9472  -17.3042  -93.8391 C   0  0  1  0  0  0  0  0  0  0  0  0
   -0.9092  -18.2438  -94.8813 C   0  0  2  0  0  0  0  0  0  0  0  0
   -1.0562  -18.1779  -96.3815 C   0  0  0  0  0  0  0  0  0  0  0  0
    0.2806  -17.8571  -97.0585 C   0  0  0  0  0  0  0  0  0  0  0  0
    0.5575  -16.4685  -96.9245 O   0  0  0  0  0  0  0  0  0  0  0  0
  1 11  1  0  0  0  0
  3 13  1  1  0  0  0
  3 17  2  0  0  0  0
  3 20  1  0  0  0  0
  3 26  1  0  0  0  0
  4 14  1  1  0  0  0
  4 18  1  0  0  0  0
  4 21  2  0  0  0  0
  4 20  1  0  0  0  0
  5 19  1  0  0  0  0
  5  7  1  0  0  0  0
  6  7  2  0  0  0  0
  6 12  1  0  0  0  0
  7  8  1  0  0  0  0
  8  9  1  0  0  0  0
  8 10  2  0  0  0  0
 10 11  1  0  0  0  0
 11 12  2  0  0  0  0
 15 23  1  0  0  0  0
 15 16  1  0  0  0  0
 16 19  1  0  0  0  0
 19 22  1  0  0  0  0
 22  2  1  1  0  0  0
 22 23  1  0  0  0  0
 23 24  1  1  0  0  0
 24 25  1  0  0  0  0
 25 26  1  0  0  0  0
M  CHG  2  13  -1  18  -1
M  END
>  <CHROM.1>
174.80692074,70.50290077,64.75789112,58.73233476,-94.40562538,-77.45078808
-174.06302295,-74.19447604,0.62795453,-16.49400661,-94.51437755,-1.46830684
-0.85159508,-1.10338469

>  <Name>
ligand

>  <RI>
0

>  <Rbt.Current_Directory>
/home/itssahil/PROJECTS/Mol_Feturizer/New_Systems/rnas/2CKY

>  <Rbt.Executable>
rbdock ($Id: //depot/dev/client3/rdock/2013.1/src/exe/rbdock.cxx#4 $)

>  <Rbt.Library>
libRbt.so (2013.1, Build901 2013/11/27)

>  <Rbt.Parameter_File>
/export/apps/rDock/src/rDock_2013.1_src/data/scripts/dock_solv.prm

>  <Rbt.Receptor>
prm/pocket_docking_3.prm

>  <SCORE>
-15.9131

>  <SCORE.INTER>
-8.13271

>  <SCORE.INTER.CONST>
1

>  <SCORE.INTER.POLAR>
0

>  <SCORE.INTER.ROT>
8

>  <SCORE.INTER.SOLV>
12.8491

>  <SCORE.INTER.VDW>
-18.6382

>  <SCORE.INTER.norm>
-0.312796

>  <SCORE.INTRA>
-7.78677

>  <SCORE.INTRA.DIHEDRAL>
-10.0373

>  <SCORE.INTRA.DIHEDRAL.0>
16.4846

>  <SCORE.INTRA.POLAR>
0

>  <SCORE.INTRA.POLAR.0>
0

>  <SCORE.INTRA.REPUL>
0

>  <SCORE.INTRA.REPUL.0>
0

>  <SCORE.INTRA.SOLV>
-0.929474

>  <SCORE.INTRA.SOLV.lig_0>
-82.6983

>  <SCORE.INTRA.VDW>
-2.30341

>  <SCORE.INTRA.VDW.0>
-2.11466

>  <SCORE.INTRA.norm>
-0.299491

>  <SCORE.RESTR>
0.00638508

>  <SCORE.RESTR.CAVITY>
0.00638508

>  <SCORE.RESTR.norm>
0.00024558

>  <SCORE.SYSTEM>
0

>  <SCORE.SYSTEM.CONST>
0

>  <SCORE.SYSTEM.DIHEDRAL>
0

>  <SCORE.SYSTEM.SOLV>
0

>  <SCORE.SYSTEM.norm>
0

>  <SCORE.heavy>
26

>  <SCORE.norm>
-0.612042

>  <RMSD>
3.296

$$$$
ligand
 OpenBabel11021811423D
libRbt.so/2013.1/901 2013/11/27
 26 27  0  0  0  0  0  0  0  0999 V2000
    0.3480  -18.9612  -86.4103 C   0  0  0  0  0  0  0  0  0  0  0  0
    0.7649  -14.9418  -92.3352 C   0  0  0  0  0  0  0  0  0  0  0  0
   -2.0393  -15.9173  -97.7409 P   0  0  2  0  0  0  0  0  0  0  0  0
   -0.6228  -18.2924  -97.8925 P   0  0  2  0  0  0  0  0  0  0  0  0
    2.0008  -17.7893  -91.7731 C   0  0  0  0  0  0  0  0  0  0  0  0
    2.1398  -17.4923  -89.3129 C   0  0  0  0  0  0  0  0  0  0  0  0
    1.5494  -18.1482  -90.3853 C   0  0  0  0  0  0  0  0  0  0  0  0
    0.5282  -19.0691  -90.1334 C   0  0  0  0  0  0  0  0  0  0  0  0
   -0.1194  -19.7480  -91.0808 N   0  0  0  0  0  0  0  0  0  0  0  0
    0.1549  -19.3107  -88.8366 N   0  0  0  0  0  0  0  0  0  0  0  0
    0.7680  -18.6642  -87.8006 C   0  0  0  0  0  0  0  0  0  0  0  0
    1.7527  -17.7539  -88.0160 N   0  0  0  0  0  0  0  0  0  0  0  0
   -3.3554  -15.4406  -97.1589 O   0  5  0  0  0  0  0  0  0  0  0  0
    0.5918  -17.7038  -97.2106 O   0  0  0  0  0  0  0  0  0  0  0  0
   -0.9278  -17.8264  -94.3790 S   0  0  0  0  0  0  0  0  0  0  0  0
    0.2733  -18.4104  -93.4449 C   0  0  0  0  0  0  0  0  0  0  0  0
   -2.0610  -15.5360  -99.2187 O   0  0  0  0  0  0  0  0  0  0  0  0
   -0.5665  -18.1116  -99.3957 O   0  5  0  0  0  0  0  0  0  0  0  0
    0.9368  -17.4606  -92.6914 N   0  0  0  0  0  0  0  0  0  0  0  0
   -1.8890  -17.4801  -97.3652 O   0  0  0  0  0  0  0  0  0  0  0  0
   -0.7022  -19.7624  -97.5342 O   0  0  0  0  0  0  0  0  0  0  0  0
    0.3762  -16.2320  -92.9402 C   0  0  1  0  0  0  0  0  0  0  0  0
   -0.6748  -16.3356  -93.8649 C   0  0  2  0  0  0  0  0  0  0  0  0
   -1.6425  -15.3625  -94.4919 C   0  0  0  0  0  0  0  0  0  0  0  0
   -0.9792  -14.5671  -95.6213 C   0  0  0  0  0  0  0  0  0  0  0  0
   -0.8180  -15.4055  -96.7589 O   0  0  0  0  0  0  0  0  0  0  0  0
  1 11  1  0  0  0  0
  3 13  1  1  0  0  0
  3 17  2  0  0  0  0
  3 20  1  0  0  0  0
  3 26  1  0  0  0  0
  4 14  1  1  0  0  0
  4 18  1  0  0  0  0
  4 21  2  0  0  0  0
  4 20  1  0  0  0  0
  5 19  1  0  0  0  0
  5  7  1  0  0  0  0
  6  7  2  0  0  0  0
  6 12  1  0  0  0  0
  7  8  1  0  0  0  0
  8  9  1  0  0  0  0
  8 10  2  0  0  0  0
 10 11  1  0  0  0  0
 11 12  2  0  0  0  0
 15 23  1  0  0  0  0
 15 16  1  0  0  0  0
 16 19  1  0  0  0  0
 19 22  1  0  0  0  0
 22  2  1  1  0  0  0
 22 23  1  0  0  0  0
 23 24  1  1  0  0  0
 24 25  1  0  0  0  0
 25 26  1  0  0  0  0
M  CHG  2  13  -1  18  -1
M  END
>  <CHROM.1>
177.51498875,-87.46307698,-128.55671021,65.97153426,-102.15934207,74.05558499
72.32735238,-4.64909779,-0.35201713,-17.34594710,-94.18440385,0.67017161
-1.23736677,0.87280244

>  <Name>
ligand

>  <RI>
0

>  <Rbt.Current_Directory>
/home/itssahil/PROJECTS/Mol_Feturizer/New_Systems/rnas/2CKY

>  <Rbt.Executable>
rbdock ($Id: //depot/dev/client3/rdock/2013.1/src/exe/rbdock.cxx#4 $)

>  <Rbt.Library>
libRbt.so (2013.1, Build901 2013/11/27)

>  <Rbt.Parameter_File>
/export/apps/rDock/src/rDock_2013.1_src/data/scripts/dock_solv.prm

>  <Rbt.Receptor>
prm/pocket_docking_5.prm

>  <SCORE>
-18.1409

>  <SCORE.INTER>
-11.9884

>  <SCORE.INTER.CONST>
1

>  <SCORE.INTER.POLAR>
0

>  <SCORE.INTER.ROT>
8

>  <SCORE.INTER.SOLV>
12.5529

>  <SCORE.INTER.VDW>
-21.1099

>  <SCORE.INTER.norm>
-0.461093

>  <SCORE.INTRA>
-6.15252

>  <SCORE.INTRA.DIHEDRAL>
-7.87405

>  <SCORE.INTRA.DIHEDRAL.0>
16.4846

>  <SCORE.INTRA.POLAR>
0

>  <SCORE.INTRA.POLAR.0>
0

>  <SCORE.INTRA.REPUL>
0

>  <SCORE.INTRA.REPUL.0>
0

>  <SCORE.INTRA.SOLV>
2.36225

>  <SCORE.INTRA.SOLV.lig_0>
-82.6983

>  <SCORE.INTRA.VDW>
-3.39662

>  <SCORE.INTRA.VDW.0>
-2.11466

>  <SCORE.INTRA.norm>
-0.236635

>  <SCORE.RESTR>
0

>  <SCORE.RESTR.CAVITY>
0

>  <SCORE.RESTR.norm>
0

>  <SCORE.SYSTEM>
0

>  <SCORE.SYSTEM.CONST>
0

>  <SCORE.SYSTEM.DIHEDRAL>
0

>  <SCORE.SYSTEM.SOLV>
0

>  <SCORE.SYSTEM.norm>
0

>  <SCORE.heavy>
26

>  <SCORE.norm>
-0.697729

>  <RMSD>
3.303

$$$$
ligand
 OpenBabel11021811423D
libRbt.so/2013.1/901 2013/11/27
 26 27  0  0  0  0  0  0  0  0999 V2000
    0.3378  -18.9314  -86.5439 C   0  0  0  0  0  0  0  0  0  0  0  0
    2.0722  -14.7108  -92.1812 C   0  0  0  0  0  0  0  0  0  0  0  0
   -2.3037  -14.5805  -96.2090 P   0  0  2  0  0  0  0  0  0  0  0  0
   -1.8530  -16.5430  -98.1105 P   0  0  2  0  0  0  0  0  0  0  0  0
    3.5227  -17.2534  -91.0055 C   0  0  0  0  0  0  0  0  0  0  0  0
    1.4178  -18.0996  -89.9986 C   0  0  0  0  0  0  0  0  0  0  0  0
    2.7207  -17.6607  -89.8014 C   0  0  0  0  0  0  0  0  0  0  0  0
    3.2463  -17.6680  -88.5061 C   0  0  0  0  0  0  0  0  0  0  0  0
    4.4849  -17.2828  -88.1976 N   0  0  0  0  0  0  0  0  0  0  0  0
    2.4545  -18.0888  -87.4690 N   0  0  0  0  0  0  0  0  0  0  0  0
    1.1694  -18.4965  -87.6914 C   0  0  0  0  0  0  0  0  0  0  0  0
    0.6371  -18.5139  -88.9408 N   0  0  0  0  0  0  0  0  0  0  0  0
   -3.2193  -15.5290  -95.4605 O   0  5  0  0  0  0  0  0  0  0  0  0
   -2.2980  -17.7486  -97.3135 O   0  0  0  0  0  0  0  0  0  0  0  0
    1.6343  -17.9303  -94.3736 S   0  0  0  0  0  0  0  0  0  0  0  0
    2.5527  -18.2454  -93.0646 C   0  0  0  0  0  0  0  0  0  0  0  0
   -3.2125  -13.6163  -96.9668 O   0  0  0  0  0  0  0  0  0  0  0  0
   -0.7305  -16.8856  -99.0688 O   0  5  0  0  0  0  0  0  0  0  0  0
    2.7700  -17.1625  -92.2337 N   0  0  0  0  0  0  0  0  0  0  0  0
   -1.2775  -15.4844  -97.0668 O   0  0  0  0  0  0  0  0  0  0  0  0
   -3.0518  -16.0033  -98.8638 O   0  0  0  0  0  0  0  0  0  0  0  0
    2.1207  -16.0709  -92.7553 C   0  0  1  0  0  0  0  0  0  0  0  0
    1.4548  -16.4020  -93.9459 C   0  0  2  0  0  0  0  0  0  0  0  0
    0.5901  -15.6507  -94.9279 C   0  0  0  0  0  0  0  0  0  0  0  0
   -0.4648  -14.8044  -94.2072 C   0  0  0  0  0  0  0  0  0  0  0  0
   -1.1671  -14.0136  -95.1582 O   0  0  0  0  0  0  0  0  0  0  0  0
  1 11  1  0  0  0  0
  3 13  1  1  0  0  0
  3 17  2  0  0  0  0
  3 20  1  0  0  0  0
  3 26  1  0  0  0  0
  4 14  1  1  0  0  0
  4 18  1  0  0  0  0
  4 21  2  0  0  0  0
  4 20  1  0  0  0  0
  5 19  1  0  0  0  0
  5  7  1  0  0  0  0
  6  7  2  0  0  0  0
  6 12  1  0  0  0  0
  7  8  1  0  0  0  0
  8  9  1  0  0  0  0
  8 10  2  0  0  0  0
 10 11  1  0  0  0  0
 11 12  2  0  0  0  0
 15 23  1  0  0  0  0
 15 16  1  0  0  0  0
 16 19  1  0  0  0  0
 19 22  1  0  0  0  0
 22  2  1  1  0  0  0
 22 23  1  0  0  0  0
 23 24  1  1  0  0  0
 24 25  1  0  0  0  0
 25 26  1  0  0  0  0
M  CHG  2  13  -1  18  -1
M  END
>  <CHROM.1>
56.84706002,-86.73217729,9.45200060,-78.71746531,133.67672171,174.23670690
74.47341975,43.56101631,0.22239501,-16.56994267,-93.65839316,1.05774771,-0.40080083
1.61275756

>  <Name>
ligand

>  <RI>
0

>  <Rbt.Current_Directory>
/home/itssahil/PROJECTS/Mol_Feturizer/New_Systems/rnas/2CKY

>  <Rbt.Executable>
rbdock ($Id: //depot/dev/client3/rdock/2013.1/src/exe/rbdock.cxx#4 $)

>  <Rbt.Library>
libRbt.so (2013.1, Build901 2013/11/27)

>  <Rbt.Parameter_File>
/export/apps/rDock/src/rDock_2013.1_src/data/scripts/dock_solv.prm

>  <Rbt.Receptor>
prm/pocket_docking_4.prm

>  <SCORE>
-18.3917

>  <SCORE.INTER>
-13.2972

>  <SCORE.INTER.CONST>
1

>  <SCORE.INTER.POLAR>
0

>  <SCORE.INTER.ROT>
8

>  <SCORE.INTER.SOLV>
23.2747

>  <SCORE.INTER.VDW>
-25.5564

>  <SCORE.INTER.norm>
-0.511432

>  <SCORE.INTRA>
-5.09445

>  <SCORE.INTRA.DIHEDRAL>
-9.94902

>  <SCORE.INTRA.DIHEDRAL.0>
16.4846

>  <SCORE.INTRA.POLAR>
0

>  <SCORE.INTRA.POLAR.0>
0

>  <SCORE.INTRA.REPUL>
0

>  <SCORE.INTRA.REPUL.0>
0

>  <SCORE.INTRA.SOLV>
1.35219

>  <SCORE.INTRA.SOLV.lig_0>
-82.6983

>  <SCORE.INTRA.VDW>
-0.796032

>  <SCORE.INTRA.VDW.0>
-2.11466

>  <SCORE.INTRA.norm>
-0.19594

>  <SCORE.RESTR>
0

>  <SCORE.RESTR.CAVITY>
0

>  <SCORE.RESTR.norm>
0

>  <SCORE.SYSTEM>
0

>  <SCORE.SYSTEM.CONST>
0

>  <SCORE.SYSTEM.DIHEDRAL>
0

>  <SCORE.SYSTEM.SOLV>
0

>  <SCORE.SYSTEM.norm>
0

>  <SCORE.heavy>
26

>  <SCORE.norm>
-0.707372

>  <RMSD>
3.349

$$$$
ligand
 OpenBabel11021811423D
libRbt.so/2013.1/901 2013/11/27
 26 27  0  0  0  0  0  0  0  0999 V2000
    0.0131  -18.9816  -85.7188 C   0  0  0  0  0  0  0  0  0  0  0  0
    1.1336  -15.1590  -92.6438 C   0  0  0  0  0  0  0  0  0  0  0  0
   -0.9567  -17.3633  -97.9242 P   0  0  2  0  0  0  0  0  0  0  0  0
   -3.0360  -15.8289  -98.9204 P   0  0  2  0  0  0  0  0  0  0  0  0
    1.7515  -17.8135  -91.0554 C   0  0  0  0  0  0  0  0  0  0  0  0
    0.1117  -18.7089  -89.4214 C   0  0  0  0  0  0  0  0  0  0  0  0
    1.3296  -18.0771  -89.6372 C   0  0  0  0  0  0  0  0  0  0  0  0
    2.1317  -17.7642  -88.5358 C   0  0  0  0  0  0  0  0  0  0  0  0
    3.3228  -17.1710  -88.6204 N   0  0  0  0  0  0  0  0  0  0  0  0
    1.6836  -18.0722  -87.2773 N   0  0  0  0  0  0  0  0  0  0  0  0
    0.4716  -18.6763  -87.0951 C   0  0  0  0  0  0  0  0  0  0  0  0
   -0.3222  -19.0051  -88.1470 N   0  0  0  0  0  0  0  0  0  0  0  0
    0.5577  -17.3521  -97.9918 O   0  5  0  0  0  0  0  0  0  0  0  0
   -3.1711  -14.7353  -99.9559 O   0  0  0  0  0  0  0  0  0  0  0  0
   -1.4632  -18.0231  -93.2893 S   0  0  0  0  0  0  0  0  0  0  0  0
   -0.3027  -18.5194  -92.2583 C   0  0  0  0  0  0  0  0  0  0  0  0
   -1.4017  -18.7027  -98.5055 O   0  0  0  0  0  0  0  0  0  0  0  0
   -3.6819  -15.4414  -97.6057 O   0  5  0  0  0  0  0  0  0  0  0  0
    0.6665  -17.5751  -91.9770 N   0  0  0  0  0  0  0  0  0  0  0  0
   -1.4771  -16.0158  -98.6448 O   0  0  0  0  0  0  0  0  0  0  0  0
   -3.6693  -17.0886  -99.4753 O   0  0  0  0  0  0  0  0  0  0  0  0
    0.3727  -16.4247  -92.6668 C   0  0  1  0  0  0  0  0  0  0  0  0
   -0.8002  -16.5762  -93.4230 C   0  0  2  0  0  0  0  0  0  0  0  0
   -1.6009  -15.6832  -94.3384 C   0  0  0  0  0  0  0  0  0  0  0  0
   -1.0392  -15.7001  -95.7641 C   0  0  0  0  0  0  0  0  0  0  0  0
   -1.4151  -16.9122  -96.4063 O   0  0  0  0  0  0  0  0  0  0  0  0
  1 11  1  0  0  0  0
  3 13  1  6  0  0  0
  3 17  2  0  0  0  0
  3 20  1  0  0  0  0
  3 26  1  0  0  0  0
  4 14  1  6  0  0  0
  4 18  1  0  0  0  0
  4 21  2  0  0  0  0
  4 20  1  0  0  0  0
  5 19  1  0  0  0  0
  5  7  1  0  0  0  0
  6  7  2  0  0  0  0
  6 12  1  0  0  0  0
  7  8  1  0  0  0  0
  8  9  1  0  0  0  0
  8 10  2  0  0  0  0
 10 11  1  0  0  0  0
 11 12  2  0  0  0  0
 15 23  1  0  0  0  0
 15 16  1  0  0  0  0
 16 19  1  0  0  0  0
 19 22  1  0  0  0  0
 22  2  1  1  0  0  0
 22 23  1  0  0  0  0
 23 24  1  1  0  0  0
 24 25  1  0  0  0  0
 25 26  1  0  0  0  0
M  CHG  2  13  -1  18  -1
M  END
>  <CHROM.1>
171.45097996,-62.33531282,31.26353308,-162.59425102,-95.74525742,76.10399988
-176.92315027,56.10483801,-0.66748106,-17.15096969,-94.00995665,1.25252494
0.19637383,1.81064395

>  <Name>
ligand

>  <RI>
0

>  <Rbt.Current_Directory>
/home/itssahil/PROJECTS/Mol_Feturizer/New_Systems/rnas/2CKY

>  <Rbt.Executable>
rbdock ($Id: //depot/dev/client3/rdock/2013.1/src/exe/rbdock.cxx#4 $)

>  <Rbt.Library>
libRbt.so (2013.1, Build901 2013/11/27)

>  <Rbt.Parameter_File>
/export/apps/rDock/src/rDock_2013.1_src/data/scripts/dock_solv.prm

>  <Rbt.Receptor>
prm/pocket_docking_8.prm

>  <SCORE>
-24.0832

>  <SCORE.INTER>
-18.4034

>  <SCORE.INTER.CONST>
1

>  <SCORE.INTER.POLAR>
0

>  <SCORE.INTER.ROT>
8

>  <SCORE.INTER.SOLV>
19.4853

>  <SCORE.INTER.VDW>
-27.6974

>  <SCORE.INTER.norm>
-0.707823

>  <SCORE.INTRA>
-5.67977

>  <SCORE.INTRA.DIHEDRAL>
-10.1525

>  <SCORE.INTRA.DIHEDRAL.0>
16.4846

>  <SCORE.INTRA.POLAR>
0

>  <SCORE.INTRA.POLAR.0>
0

>  <SCORE.INTRA.REPUL>
0

>  <SCORE.INTRA.REPUL.0>
0

>  <SCORE.INTRA.SOLV>
1.70691

>  <SCORE.INTRA.SOLV.lig_0>
-82.6983

>  <SCORE.INTRA.VDW>
-1.45696

>  <SCORE.INTRA.VDW.0>
-2.11466

>  <SCORE.INTRA.norm>
-0.218453

>  <SCORE.RESTR>
0

>  <SCORE.RESTR.CAVITY>
0

>  <SCORE.RESTR.norm>
0

>  <SCORE.SYSTEM>
0

>  <SCORE.SYSTEM.CONST>
0

>  <SCORE.SYSTEM.DIHEDRAL>
0

>  <SCORE.SYSTEM.SOLV>
0

>  <SCORE.SYSTEM.norm>
0

>  <SCORE.heavy>
26

>  <SCORE.norm>
-0.926275

>  <RMSD>
3.354

$$$$
ligand
 OpenBabel11021811423D
libRbt.so/2013.1/901 2013/11/27
 26 27  0  0  0  0  0  0  0  0999 V2000
    0.1663  -19.1081  -86.3046 C   0  0  0  0  0  0  0  0  0  0  0  0
    3.4895  -16.4100  -93.9685 C   0  0  0  0  0  0  0  0  0  0  0  0
   -0.7546  -17.1256  -96.8185 P   0  0  2  0  0  0  0  0  0  0  0  0
   -2.0922  -16.5545  -99.1754 P   0  0  2  0  0  0  0  0  0  0  0  0
    2.8968  -17.2153  -90.9766 C   0  0  0  0  0  0  0  0  0  0  0  0
    2.6815  -17.5106  -88.5216 C   0  0  0  0  0  0  0  0  0  0  0  0
    2.1558  -17.7521  -89.7843 C   0  0  0  0  0  0  0  0  0  0  0  0
    0.9391  -18.4324  -89.8896 C   0  0  0  0  0  0  0  0  0  0  0  0
    0.3328  -18.7093  -91.0443 N   0  0  0  0  0  0  0  0  0  0  0  0
    0.3129  -18.8570  -88.7463 N   0  0  0  0  0  0  0  0  0  0  0  0
    0.8646  -18.6218  -87.5185 C   0  0  0  0  0  0  0  0  0  0  0  0
    2.0378  -17.9508  -87.3849 N   0  0  0  0  0  0  0  0  0  0  0  0
    0.4019  -17.8822  -97.4415 O   0  5  0  0  0  0  0  0  0  0  0  0
   -2.3219  -15.3486 -100.0584 O   0  0  0  0  0  0  0  0  0  0  0  0
    0.3392  -14.6372  -92.4533 S   0  0  0  0  0  0  0  0  0  0  0  0
    1.0181  -15.6381  -91.3607 C   0  0  0  0  0  0  0  0  0  0  0  0
   -1.7466  -18.1807  -96.3359 O   0  0  0  0  0  0  0  0  0  0  0  0
   -3.3955  -17.1310  -98.6609 O   0  5  0  0  0  0  0  0  0  0  0  0
    2.1349  -16.3167  -91.8105 N   0  0  0  0  0  0  0  0  0  0  0  0
   -1.2651  -16.0506  -97.9093 O   0  0  0  0  0  0  0  0  0  0  0  0
   -1.3295  -17.5904  -99.9760 O   0  0  0  0  0  0  0  0  0  0  0  0
    2.3833  -15.9431  -93.1082 C   0  0  1  0  0  0  0  0  0  0  0  0
    1.4377  -15.0056  -93.5525 C   0  0  2  0  0  0  0  0  0  0  0  0
    1.2126  -14.2451  -94.8361 C   0  0  0  0  0  0  0  0  0  0  0  0
    1.0002  -15.1974  -96.0177 C   0  0  0  0  0  0  0  0  0  0  0  0
   -0.1442  -16.0059  -95.7739 O   0  0  0  0  0  0  0  0  0  0  0  0
  1 11  1  0  0  0  0
  3 13  1  6  0  0  0
  3 17  2  0  0  0  0
  3 20  1  0  0  0  0
  3 26  1  0  0  0  0
  4 14  1  6  0  0  0
  4 18  1  0  0  0  0
  4 21  2  0  0  0  0
  4 20  1  0  0  0  0
  5 19  1  0  0  0  0
  5  7  1  0  0  0  0
  6  7  2  0  0  0  0
  6 12  1  0  0  0  0
  7  8  1  0  0  0  0
  8  9  1  0  0  0  0
  8 10  2  0  0  0  0
 10 11  1  0  0  0  0
 11 12  2  0  0  0  0
 15 23  1  0  0  0  0
 15 16  1  0  0  0  0
 16 19  1  0  0  0  0
 19 22  1  0  0  0  0
 22  2  1  1  0  0  0
 22 23  1  0  0  0  0
 23 24  1  1  0  0  0
 24 25  1  0  0  0  0
 25 26  1  0  0  0  0
M  CHG  2  13  -1  18  -1
M  END
>  <CHROM.1>
73.71961076,21.12510575,-121.52581684,-175.31619565,-120.93248331,60.45506571
177.68559804,41.27848990,0.23406132,-16.79875778,-94.00048389,1.14355838
0.76897328,1.99926600

>  <Name>
ligand

>  <RI>
0

>  <Rbt.Current_Directory>
/home/itssahil/PROJECTS/Mol_Feturizer/New_Systems/rnas/2CKY

>  <Rbt.Executable>
rbdock ($Id: //depot/dev/client3/rdock/2013.1/src/exe/rbdock.cxx#4 $)

>  <Rbt.Library>
libRbt.so (2013.1, Build901 2013/11/27)

>  <Rbt.Parameter_File>
/export/apps/rDock/src/rDock_2013.1_src/data/scripts/dock_solv.prm

>  <Rbt.Receptor>
prm/pocket_docking_4.prm

>  <SCORE>
-20.0192

>  <SCORE.INTER>
-14.3127

>  <SCORE.INTER.CONST>
1

>  <SCORE.INTER.POLAR>
0

>  <SCORE.INTER.ROT>
8

>  <SCORE.INTER.SOLV>
12.2278

>  <SCORE.INTER.VDW>
-22.5511

>  <SCORE.INTER.norm>
-0.55049

>  <SCORE.INTRA>
-5.70642

>  <SCORE.INTRA.DIHEDRAL>
-11.3606

>  <SCORE.INTRA.DIHEDRAL.0>
16.4846

>  <SCORE.INTRA.POLAR>
0

>  <SCORE.INTRA.POLAR.0>
0

>  <SCORE.INTRA.REPUL>
0

>  <SCORE.INTRA.REPUL.0>
0

>  <SCORE.INTRA.SOLV>
3.13912

>  <SCORE.INTRA.SOLV.lig_0>
-82.6983

>  <SCORE.INTRA.VDW>
-1.59567

>  <SCORE.INTRA.VDW.0>
-2.11466

>  <SCORE.INTRA.norm>
-0.219478

>  <SCORE.RESTR>
0

>  <SCORE.RESTR.CAVITY>
0

>  <SCORE.RESTR.norm>
0

>  <SCORE.SYSTEM>
0

>  <SCORE.SYSTEM.CONST>
0

>  <SCORE.SYSTEM.DIHEDRAL>
0

>  <SCORE.SYSTEM.SOLV>
0

>  <SCORE.SYSTEM.norm>
0

>  <SCORE.heavy>
26

>  <SCORE.norm>
-0.769968

>  <RMSD>
3.367

$$$$
ligand
 OpenBabel11021811423D
libRbt.so/2013.1/901 2013/11/27
 26 27  0  0  0  0  0  0  0  0999 V2000
    2.9984  -17.5739  -88.2241 C   0  0  0  0  0  0  0  0  0  0  0  0
   -1.5861  -15.9849  -94.8180 C   0  0  0  0  0  0  0  0  0  0  0  0
    2.8703  -16.7801  -97.2633 P   0  0  2  0  0  0  0  0  0  0  0  0
    3.1915  -14.0303  -97.1886 P   0  0  2  0  0  0  0  0  0  0  0  0
   -1.3297  -17.3287  -91.9755 C   0  0  0  0  0  0  0  0  0  0  0  0
   -0.3208  -18.0427  -89.8231 C   0  0  0  0  0  0  0  0  0  0  0  0
   -0.1743  -17.3441  -91.0145 C   0  0  0  0  0  0  0  0  0  0  0  0
    1.0526  -16.7344  -91.2925 C   0  0  0  0  0  0  0  0  0  0  0  0
    1.3141  -16.0498  -92.4064 N   0  0  0  0  0  0  0  0  0  0  0  0
    2.0656  -16.8279  -90.3735 N   0  0  0  0  0  0  0  0  0  0  0  0
    1.8853  -17.5057  -89.2008 C   0  0  0  0  0  0  0  0  0  0  0  0
    0.7093  -18.1200  -88.9104 N   0  0  0  0  0  0  0  0  0  0  0  0
    3.8901  -17.1650  -96.2098 O   0  5  0  0  0  0  0  0  0  0  0  0
    3.3954  -13.9946  -98.6866 O   0  0  0  0  0  0  0  0  0  0  0  0
   -0.4696  -19.7400  -94.9444 S   0  0  0  0  0  0  0  0  0  0  0  0
   -0.6734  -19.2513  -93.4030 C   0  0  0  0  0  0  0  0  0  0  0  0
    3.5661  -16.9408  -98.6123 O   0  0  0  0  0  0  0  0  0  0  0  0
    4.5026  -14.1909  -96.4464 O   0  5  0  0  0  0  0  0  0  0  0  0
   -1.0600  -17.9322  -93.2586 N   0  0  0  0  0  0  0  0  0  0  0  0
    2.3076  -15.3185  -96.8721 O   0  0  0  0  0  0  0  0  0  0  0  0
    2.4967  -12.7493  -96.7737 O   0  0  0  0  0  0  0  0  0  0  0  0
   -1.1784  -17.3698  -94.5056 C   0  0  1  0  0  0  0  0  0  0  0  0
   -0.8741  -18.3021  -95.5099 C   0  0  2  0  0  0  0  0  0  0  0  0
   -0.8459  -18.2729  -97.0182 C   0  0  0  0  0  0  0  0  0  0  0  0
    0.2037  -17.2841  -97.5365 C   0  0  0  0  0  0  0  0  0  0  0  0
    1.4629  -17.5768  -96.9435 O   0  0  0  0  0  0  0  0  0  0  0  0
  1 11  1  0  0  0  0
  3 13  1  1  0  0  0
  3 17  2  0  0  0  0
  3 20  1  0  0  0  0
  3 26  1  0  0  0  0
  4 14  1  6  0  0  0
  4 18  1  0  0  0  0
  4 21  2  0  0  0  0
  4 20  1  0  0  0  0
  5 19  1  0  0  0  0
  5  7  1  0  0  0  0
  6  7  2  0  0  0  0
  6 12  1  0  0  0  0
  7  8  1  0  0  0  0
  8  9  1  0  0  0  0
  8 10  2  0  0  0  0
 10 11  1  0  0  0  0
 11 12  2  0  0  0  0
 15 23  1  0  0  0  0
 15 16  1  0  0  0  0
 16 19  1  0  0  0  0
 19 22  1  0  0  0  0
 22  2  1  6  0  0  0
 22 23  1  0  0  0  0
 23 24  1  6  0  0  0
 24 25  1  0  0  0  0
 25 26  1  0  0  0  0
M  CHG  2  13  -1  18  -1
M  END
>  <CHROM.1>
77.86930217,59.45695607,-117.82748368,60.69709190,-117.03399382,53.29773550
178.09146978,166.82693441,1.31793817,-16.78847059,-94.63569399,-1.99556401
-0.71308520,-1.50858556

>  <Name>
ligand

>  <RI>
0

>  <Rbt.Current_Directory>
/home/itssahil/PROJECTS/Mol_Feturizer/New_Systems/rnas/2CKY

>  <Rbt.Executable>
rbdock ($Id: //depot/dev/client3/rdock/2013.1/src/exe/rbdock.cxx#4 $)

>  <Rbt.Library>
libRbt.so (2013.1, Build901 2013/11/27)

>  <Rbt.Parameter_File>
/export/apps/rDock/src/rDock_2013.1_src/data/scripts/dock_solv.prm

>  <Rbt.Receptor>
prm/pocket_docking_4.prm

>  <SCORE>
-18.6047

>  <SCORE.INTER>
-12.0632

>  <SCORE.INTER.CONST>
1

>  <SCORE.INTER.POLAR>
0

>  <SCORE.INTER.ROT>
8

>  <SCORE.INTER.SOLV>
14.1402

>  <SCORE.INTER.VDW>
-21.6889

>  <SCORE.INTER.norm>
-0.463968

>  <SCORE.INTRA>
-6.54157

>  <SCORE.INTRA.DIHEDRAL>
-11.2147

>  <SCORE.INTRA.DIHEDRAL.0>
16.4846

>  <SCORE.INTRA.POLAR>
0

>  <SCORE.INTRA.POLAR.0>
0

>  <SCORE.INTRA.REPUL>
0

>  <SCORE.INTRA.REPUL.0>
0

>  <SCORE.INTRA.SOLV>
2.24687

>  <SCORE.INTRA.SOLV.lig_0>
-82.6983

>  <SCORE.INTRA.VDW>
-2.05763

>  <SCORE.INTRA.VDW.0>
-2.11466

>  <SCORE.INTRA.norm>
-0.251599

>  <SCORE.RESTR>
0

>  <SCORE.RESTR.CAVITY>
0

>  <SCORE.RESTR.norm>
0

>  <SCORE.SYSTEM>
0

>  <SCORE.SYSTEM.CONST>
0

>  <SCORE.SYSTEM.DIHEDRAL>
0

>  <SCORE.SYSTEM.SOLV>
0

>  <SCORE.SYSTEM.norm>
0

>  <SCORE.heavy>
26

>  <SCORE.norm>
-0.715566

>  <RMSD>
3.385

$$$$
ligand
 OpenBabel11021811423D
libRbt.so/2013.1/901 2013/11/27
 26 27  0  0  0  0  0  0  0  0999 V2000
    0.0997  -19.0344  -85.8899 C   0  0  0  0  0  0  0  0  0  0  0  0
   -0.4340  -16.5907  -92.6070 C   0  0  0  0  0  0  0  0  0  0  0  0
   -1.2139  -14.9429  -95.8620 P   0  0  2  0  0  0  0  0  0  0  0  0
   -2.6135  -13.8945  -98.0096 P   0  0  2  0  0  0  0  0  0  0  0  0
    2.1204  -17.6106  -91.0624 C   0  0  0  0  0  0  0  0  0  0  0  0
    0.3779  -18.5425  -89.5605 C   0  0  0  0  0  0  0  0  0  0  0  0
    1.6250  -17.9437  -89.6831 C   0  0  0  0  0  0  0  0  0  0  0  0
    2.3857  -17.7274  -88.5303 C   0  0  0  0  0  0  0  0  0  0  0  0
    3.5988  -17.1742  -88.5257 N   0  0  0  0  0  0  0  0  0  0  0  0
    1.8700  -18.0942  -87.3142 N   0  0  0  0  0  0  0  0  0  0  0  0
    0.6311  -18.6636  -87.2231 C   0  0  0  0  0  0  0  0  0  0  0  0
   -0.1240  -18.8990  -88.3272 N   0  0  0  0  0  0  0  0  0  0  0  0
   -1.0161  -16.1888  -96.7027 O   0  5  0  0  0  0  0  0  0  0  0  0
   -2.9365  -12.5091  -98.5225 O   0  0  0  0  0  0  0  0  0  0  0  0
    2.2227  -13.7892  -91.9312 S   0  0  0  0  0  0  0  0  0  0  0  0
    2.7194  -15.2145  -91.3163 C   0  0  0  0  0  0  0  0  0  0  0  0
   -2.2868  -15.2867  -94.8321 O   0  0  0  0  0  0  0  0  0  0  0  0
   -3.8172  -14.5498  -97.3637 O   0  5  0  0  0  0  0  0  0  0  0  0
    1.8392  -16.2641  -91.4995 N   0  0  0  0  0  0  0  0  0  0  0  0
   -1.5042  -13.7224  -96.8778 O   0  0  0  0  0  0  0  0  0  0  0  0
   -2.1130  -14.7263  -99.1729 O   0  0  0  0  0  0  0  0  0  0  0  0
    0.7417  -15.8031  -92.1839 C   0  0  1  0  0  0  0  0  0  0  0  0
    0.8664  -14.4352  -92.4734 C   0  0  2  0  0  0  0  0  0  0  0  0
    0.0172  -13.4162  -93.1925 C   0  0  0  0  0  0  0  0  0  0  0  0
    0.4960  -13.2092  -94.6334 C   0  0  0  0  0  0  0  0  0  0  0  0
    0.2656  -14.3955  -95.3835 O   0  0  0  0  0  0  0  0  0  0  0  0
  1 11  1  0  0  0  0
  3 13  1  6  0  0  0
  3 17  2  0  0  0  0
  3 20  1  0  0  0  0
  3 26  1  0  0  0  0
  4 14  1  6  0  0  0
  4 18  1  0  0  0  0
  4 21  2  0  0  0  0
  4 20  1  0  0  0  0
  5 19  1  0  0  0  0
  5  7  1  0  0  0  0
  6  7  2  0  0  0  0
  6 12  1  0  0  0  0
  7  8  1  0  0  0  0
  8  9  1  0  0  0  0
  8 10  2  0  0  0  0
 10 11  1  0  0  0  0
 11 12  2  0  0  0  0
 15 23  1  0  0  0  0
 15 16  1  0  0  0  0
 16 19  1  0  0  0  0
 19 22  1  0  0  0  0
 22  2  1  6  0  0  0
 22 23  1  0  0  0  0
 23 24  1  6  0  0  0
 24 25  1  0  0  0  0
 25 26  1  0  0  0  0
M  CHG  2  13  -1  18  -1
M  END
>  <CHROM.1>
49.84925571,92.09596557,93.95944077,164.11120333,81.10457817,67.11781111
71.57550574,176.77222363,-0.04067201,-15.59127186,-93.17094724,1.12922407
0.60206170,2.22466944

>  <Name>
ligand

>  <RI>
0

>  <Rbt.Current_Directory>
/home/itssahil/PROJECTS/Mol_Feturizer/New_Systems/rnas/2CKY

>  <Rbt.Executable>
rbdock ($Id: //depot/dev/client3/rdock/2013.1/src/exe/rbdock.cxx#4 $)

>  <Rbt.Library>
libRbt.so (2013.1, Build901 2013/11/27)

>  <Rbt.Parameter_File>
/export/apps/rDock/src/rDock_2013.1_src/data/scripts/dock_solv.prm

>  <Rbt.Receptor>
prm/pocket_docking_7.prm

>  <SCORE>
-20.1672

>  <SCORE.INTER>
-15.4018

>  <SCORE.INTER.CONST>
1

>  <SCORE.INTER.POLAR>
0

>  <SCORE.INTER.ROT>
8

>  <SCORE.INTER.SOLV>
20.0679

>  <SCORE.INTER.VDW>
-25.8905

>  <SCORE.INTER.norm>
-0.592377

>  <SCORE.INTRA>
-4.76538

>  <SCORE.INTRA.DIHEDRAL>
-9.74563

>  <SCORE.INTRA.DIHEDRAL.0>
16.4846

>  <SCORE.INTRA.POLAR>
0

>  <SCORE.INTRA.POLAR.0>
0

>  <SCORE.INTRA.REPUL>
0

>  <SCORE.INTRA.REPUL.0>
0

>  <SCORE.INTRA.SOLV>
4.73048

>  <SCORE.INTRA.SOLV.lig_0>
-82.6983

>  <SCORE.INTRA.VDW>
-2.2578

>  <SCORE.INTRA.VDW.0>
-2.11466

>  <SCORE.INTRA.norm>
-0.183284

>  <SCORE.RESTR>
0

>  <SCORE.RESTR.CAVITY>
0

>  <SCORE.RESTR.norm>
0

>  <SCORE.SYSTEM>
0

>  <SCORE.SYSTEM.CONST>
0

>  <SCORE.SYSTEM.DIHEDRAL>
0

>  <SCORE.SYSTEM.SOLV>
0

>  <SCORE.SYSTEM.norm>
0

>  <SCORE.heavy>
26

>  <SCORE.norm>
-0.775661

>  <RMSD>
3.388

$$$$
ligand
 OpenBabel11021811423D
libRbt.so/2013.1/901 2013/11/27
 26 27  0  0  0  0  0  0  0  0999 V2000
   -0.0050  -19.1230  -86.0553 C   0  0  0  0  0  0  0  0  0  0  0  0
    0.1956  -15.9941  -92.2015 C   0  0  0  0  0  0  0  0  0  0  0  0
   -1.2173  -15.6649  -97.4147 P   0  0  2  0  0  0  0  0  0  0  0  0
   -2.6122  -17.5078  -98.9406 P   0  0  2  0  0  0  0  0  0  0  0  0
    2.6157  -17.5473  -90.9044 C   0  0  0  0  0  0  0  0  0  0  0  0
    0.7790  -18.6548  -89.6552 C   0  0  0  0  0  0  0  0  0  0  0  0
    1.9542  -17.9162  -89.6063 C   0  0  0  0  0  0  0  0  0  0  0  0
    2.4982  -17.5958  -88.3590 C   0  0  0  0  0  0  0  0  0  0  0  0
    3.6254  -16.9045  -88.1882 N   0  0  0  0  0  0  0  0  0  0  0  0
    1.8458  -18.0029  -87.2241 N   0  0  0  0  0  0  0  0  0  0  0  0
    0.6804  -18.7118  -87.3037 C   0  0  0  0  0  0  0  0  0  0  0  0
    0.1365  -19.0498  -88.5015 N   0  0  0  0  0  0  0  0  0  0  0  0
   -1.0286  -14.1632  -97.5012 O   0  5  0  0  0  0  0  0  0  0  0  0
   -1.4806  -17.6664  -99.9311 O   0  0  0  0  0  0  0  0  0  0  0  0
    1.1362  -19.3015  -94.0829 S   0  0  0  0  0  0  0  0  0  0  0  0
    2.1252  -19.0618  -92.8098 C   0  0  0  0  0  0  0  0  0  0  0  0
    0.1293  -16.2875  -97.7737 O   0  0  0  0  0  0  0  0  0  0  0  0
   -3.9662  -17.6064  -99.6133 O   0  5  0  0  0  0  0  0  0  0  0  0
    1.8738  -17.9102  -92.0882 N   0  0  0  0  0  0  0  0  0  0  0  0
   -2.4922  -16.0397  -98.3314 O   0  0  0  0  0  0  0  0  0  0  0  0
   -2.4654  -18.5773  -97.8773 O   0  0  0  0  0  0  0  0  0  0  0  0
    0.8105  -17.2563  -92.6602 C   0  0  1  0  0  0  0  0  0  0  0  0
    0.3282  -17.9584  -93.7760 C   0  0  2  0  0  0  0  0  0  0  0  0
   -0.7927  -17.7492  -94.7641 C   0  0  0  0  0  0  0  0  0  0  0  0
   -1.2731  -16.2940  -94.7614 C   0  0  0  0  0  0  0  0  0  0  0  0
   -1.9506  -16.0174  -95.9810 O   0  0  0  0  0  0  0  0  0  0  0  0
  1 11  1  0  0  0  0
  3 13  1  6  0  0  0
  3 17  2  0  0  0  0
  3 20  1  0  0  0  0
  3 26  1  0  0  0  0
  4 14  1  6  0  0  0
  4 18  1  0  0  0  0
  4 21  2  0  0  0  0
  4 20  1  0  0  0  0
  5 19  1  0  0  0  0
  5  7  1  0  0  0  0
  6  7  2  0  0  0  0
  6 12  1  0  0  0  0
  7  8  1  0  0  0  0
  8  9  1  0  0  0  0
  8 10  2  0  0  0  0
 10 11  1  0  0  0  0
 11 12  2  0  0  0  0
 15 23  1  0  0  0  0
 15 16  1  0  0  0  0
 16 19  1  0  0  0  0
 19 22  1  0  0  0  0
 22  2  1  1  0  0  0
 22 23  1  0  0  0  0
 23 24  1  1  0  0  0
 24 25  1  0  0  0  0
 25 26  1  0  0  0  0
M  CHG  2  13  -1  18  -1
M  END
>  <CHROM.1>
155.04905030,-97.37283183,5.34792905,-66.15533054,-161.97616470,159.23451527
-80.35046959,-89.99887975,-0.16418889,-17.43773162,-93.97789003,0.99843879
0.88294972,2.17662036

>  <Name>
ligand

>  <RI>
0

>  <Rbt.Current_Directory>
/home/itssahil/PROJECTS/Mol_Feturizer/New_Systems/rnas/2CKY

>  <Rbt.Executable>
rbdock ($Id: //depot/dev/client3/rdock/2013.1/src/exe/rbdock.cxx#4 $)

>  <Rbt.Library>
libRbt.so (2013.1, Build901 2013/11/27)

>  <Rbt.Parameter_File>
/export/apps/rDock/src/rDock_2013.1_src/data/scripts/dock_solv.prm

>  <Rbt.Receptor>
prm/pocket_docking_4.prm

>  <SCORE>
-18.6799

>  <SCORE.INTER>
-16.1919

>  <SCORE.INTER.CONST>
1

>  <SCORE.INTER.POLAR>
0

>  <SCORE.INTER.ROT>
8

>  <SCORE.INTER.SOLV>
21.8935

>  <SCORE.INTER.VDW>
-27.0258

>  <SCORE.INTER.norm>
-0.622765

>  <SCORE.INTRA>
-2.49439

>  <SCORE.INTRA.DIHEDRAL>
-6.15611

>  <SCORE.INTRA.DIHEDRAL.0>
16.4846

>  <SCORE.INTRA.POLAR>
0

>  <SCORE.INTRA.POLAR.0>
0

>  <SCORE.INTRA.REPUL>
0

>  <SCORE.INTRA.REPUL.0>
0

>  <SCORE.INTRA.SOLV>
1.03046

>  <SCORE.INTRA.SOLV.lig_0>
-82.6983

>  <SCORE.INTRA.VDW>
0.0684415

>  <SCORE.INTRA.VDW.0>
-2.11466

>  <SCORE.INTRA.norm>
-0.0959379

>  <SCORE.RESTR>
0.00636789

>  <SCORE.RESTR.CAVITY>
0.00636789

>  <SCORE.RESTR.norm>
0.000244919

>  <SCORE.SYSTEM>
0

>  <SCORE.SYSTEM.CONST>
0

>  <SCORE.SYSTEM.DIHEDRAL>
0

>  <SCORE.SYSTEM.SOLV>
0

>  <SCORE.SYSTEM.norm>
0

>  <SCORE.heavy>
26

>  <SCORE.norm>
-0.718458

>  <RMSD>
3.393

$$$$
ligand
 OpenBabel11021811423D
libRbt.so/2013.1/901 2013/11/27
 26 27  0  0  0  0  0  0  0  0999 V2000
    3.0666  -17.3242  -89.2928 C   0  0  0  0  0  0  0  0  0  0  0  0
    0.0524  -16.5555  -94.5261 C   0  0  0  0  0  0  0  0  0  0  0  0
    2.5130  -16.8232 -100.0522 P   0  0  2  0  0  0  0  0  0  0  0  0
    2.1084  -14.1364 -100.5888 P   0  0  2  0  0  0  0  0  0  0  0  0
   -1.0849  -18.9924  -92.8770 C   0  0  0  0  0  0  0  0  0  0  0  0
    1.2844  -18.9034  -92.1428 C   0  0  0  0  0  0  0  0  0  0  0  0
   -0.0360  -18.5507  -91.8955 C   0  0  0  0  0  0  0  0  0  0  0  0
   -0.3250  -17.7584  -90.7806 C   0  0  0  0  0  0  0  0  0  0  0  0
   -1.5498  -17.3477  -90.4502 N   0  0  0  0  0  0  0  0  0  0  0  0
    0.6993  -17.3709  -89.9560 N   0  0  0  0  0  0  0  0  0  0  0  0
    1.9864  -17.7500  -90.2144 C   0  0  0  0  0  0  0  0  0  0  0  0
    2.2987  -18.5072  -91.2978 N   0  0  0  0  0  0  0  0  0  0  0  0
    3.6499  -17.8208 -100.1542 O   0  5  0  0  0  0  0  0  0  0  0  0
    0.9444  -14.4475 -101.5025 O   0  0  0  0  0  0  0  0  0  0  0  0
   -0.2667  -19.8587  -96.6118 S   0  0  0  0  0  0  0  0  0  0  0  0
   -0.7503  -20.0994  -95.0742 C   0  0  0  0  0  0  0  0  0  0  0  0
    1.3220  -17.4560 -100.7671 O   0  0  0  0  0  0  0  0  0  0  0  0
    2.9186  -12.9589 -101.0912 O   0  5  0  0  0  0  0  0  0  0  0  0
   -0.6644  -18.9875  -94.2578 N   0  0  0  0  0  0  0  0  0  0  0  0
    3.0651  -15.4114 -100.6070 O   0  0  0  0  0  0  0  0  0  0  0  0
    1.5624  -13.8564  -99.2034 O   0  0  0  0  0  0  0  0  0  0  0  0
   -0.1803  -17.9361  -94.9965 C   0  0  1  0  0  0  0  0  0  0  0  0
    0.0664  -18.3236  -96.3230 C   0  0  2  0  0  0  0  0  0  0  0  0
    0.5702  -17.6243  -97.5614 C   0  0  0  0  0  0  0  0  0  0  0  0
    2.0232  -17.1681  -97.3913 C   0  0  0  0  0  0  0  0  0  0  0  0
    2.3877  -16.3329  -98.4833 O   0  0  0  0  0  0  0  0  0  0  0  0
  1 11  1  0  0  0  0
  3 13  1  6  0  0  0
  3 17  2  0  0  0  0
  3 20  1  0  0  0  0
  3 26  1  0  0  0  0
  4 14  1  6  0  0  0
  4 18  1  0  0  0  0
  4 21  2  0  0  0  0
  4 20  1  0  0  0  0
  5 19  1  0  0  0  0
  5  7  1  0  0  0  0
  6  7  2  0  0  0  0
  6 12  1  0  0  0  0
  7  8  1  0  0  0  0
  8  9  1  0  0  0  0
  8 10  2  0  0  0  0
 10 11  1  0  0  0  0
 11 12  2  0  0  0  0
 15 23  1  0  0  0  0
 15 16  1  0  0  0  0
 16 19  1  0  0  0  0
 19 22  1  0  0  0  0
 22  2  1  6  0  0  0
 22 23  1  0  0  0  0
 23 24  1  6  0  0  0
 24 25  1  0  0  0  0
 25 26  1  0  0  0  0
M  CHG  2  13  -1  18  -1
M  END
>  <CHROM.1>
-178.15922639,125.01850992,-36.21868288,-63.05529755,-115.32134632,-170.70187757
-66.01488967,-65.23743202,1.17580813,-17.11060071,-96.33243082,-1.93138769
-1.03578084,-1.57571201

>  <Name>
ligand

>  <RI>
0

>  <Rbt.Current_Directory>
/home/itssahil/PROJECTS/Mol_Feturizer/New_Systems/rnas/2CKY

>  <Rbt.Executable>
rbdock ($Id: //depot/dev/client3/rdock/2013.1/src/exe/rbdock.cxx#4 $)

>  <Rbt.Library>
libRbt.so (2013.1, Build901 2013/11/27)

>  <Rbt.Parameter_File>
/export/apps/rDock/src/rDock_2013.1_src/data/scripts/dock_solv.prm

>  <Rbt.Receptor>
prm/pocket_docking_4.prm

>  <SCORE>
-14.1511

>  <SCORE.INTER>
-7.53603

>  <SCORE.INTER.CONST>
1

>  <SCORE.INTER.POLAR>
0

>  <SCORE.INTER.ROT>
8

>  <SCORE.INTER.SOLV>
23.8224

>  <SCORE.INTER.VDW>
-21.8981

>  <SCORE.INTER.norm>
-0.289847

>  <SCORE.INTRA>
-6.61509

>  <SCORE.INTRA.DIHEDRAL>
-11.2361

>  <SCORE.INTRA.DIHEDRAL.0>
16.4846

>  <SCORE.INTRA.POLAR>
0

>  <SCORE.INTRA.POLAR.0>
0

>  <SCORE.INTRA.REPUL>
0

>  <SCORE.INTRA.REPUL.0>
0

>  <SCORE.INTRA.SOLV>
1.239

>  <SCORE.INTRA.SOLV.lig_0>
-82.6983

>  <SCORE.INTRA.VDW>
-1.61652

>  <SCORE.INTRA.VDW.0>
-2.11466

>  <SCORE.INTRA.norm>
-0.254426

>  <SCORE.RESTR>
0

>  <SCORE.RESTR.CAVITY>
0

>  <SCORE.RESTR.norm>
0

>  <SCORE.SYSTEM>
0

>  <SCORE.SYSTEM.CONST>
0

>  <SCORE.SYSTEM.DIHEDRAL>
0

>  <SCORE.SYSTEM.SOLV>
0

>  <SCORE.SYSTEM.norm>
0

>  <SCORE.heavy>
26

>  <SCORE.norm>
-0.544274

>  <RMSD>
3.419

$$$$
ligand
 OpenBabel11021811423D
libRbt.so/2013.1/901 2013/11/27
 26 27  0  0  0  0  0  0  0  0999 V2000
    4.3535  -17.0850  -88.5203 C   0  0  0  0  0  0  0  0  0  0  0  0
    0.9838  -19.2924  -93.4173 C   0  0  0  0  0  0  0  0  0  0  0  0
    3.6627  -15.5317  -96.4354 P   0  0  2  0  0  0  0  0  0  0  0  0
    4.1082  -12.8474  -96.9518 P   0  0  2  0  0  0  0  0  0  0  0  0
   -0.6454  -17.6559  -91.2682 C   0  0  0  0  0  0  0  0  0  0  0  0
    0.9490  -18.2364  -89.4567 C   0  0  0  0  0  0  0  0  0  0  0  0
    0.6691  -17.4525  -90.5685 C   0  0  0  0  0  0  0  0  0  0  0  0
    1.6380  -16.5515  -91.0198 C   0  0  0  0  0  0  0  0  0  0  0  0
    1.4876  -15.7584  -92.0810 N   0  0  0  0  0  0  0  0  0  0  0  0
    2.8251  -16.4554  -90.3407 N   0  0  0  0  0  0  0  0  0  0  0  0
    3.0641  -17.2261  -89.2380 C   0  0  0  0  0  0  0  0  0  0  0  0
    2.1473  -18.1202  -88.7854 N   0  0  0  0  0  0  0  0  0  0  0  0
    4.3467  -15.6414  -95.0870 O   0  5  0  0  0  0  0  0  0  0  0  0
    5.2311  -12.8794  -95.9396 O   0  0  0  0  0  0  0  0  0  0  0  0
   -1.0828  -16.3251  -94.9296 S   0  0  0  0  0  0  0  0  0  0  0  0
   -1.2988  -16.4143  -93.3167 C   0  0  0  0  0  0  0  0  0  0  0  0
    4.6771  -16.0101  -97.4708 O   0  0  0  0  0  0  0  0  0  0  0  0
    3.3287  -11.5498  -96.8862 O   0  5  0  0  0  0  0  0  0  0  0  0
   -0.6130  -17.4407  -92.6951 N   0  0  0  0  0  0  0  0  0  0  0  0
    3.1032  -14.0231  -96.5659 O   0  0  0  0  0  0  0  0  0  0  0  0
    4.7063  -13.0417  -98.3303 O   0  0  0  0  0  0  0  0  0  0  0  0
    0.0988  -18.1318  -93.6443 C   0  0  1  0  0  0  0  0  0  0  0  0
   -0.0957  -17.5806  -94.9205 C   0  0  2  0  0  0  0  0  0  0  0  0
    0.4189  -17.8897  -96.3047 C   0  0  0  0  0  0  0  0  0  0  0  0
    1.9265  -17.6350  -96.4081 C   0  0  0  0  0  0  0  0  0  0  0  0
    2.1768  -16.2373  -96.3263 O   0  0  0  0  0  0  0  0  0  0  0  0
  1 11  1  0  0  0  0
  3 13  1  1  0  0  0
  3 17  2  0  0  0  0
  3 20  1  0  0  0  0
  3 26  1  0  0  0  0
  4 14  1  1  0  0  0
  4 18  1  0  0  0  0
  4 21  2  0  0  0  0
  4 20  1  0  0  0  0
  5 19  1  0  0  0  0
  5  7  1  0  0  0  0
  6  7  2  0  0  0  0
  6 12  1  0  0  0  0
  7  8  1  0  0  0  0
  8  9  1  0  0  0  0
  8 10  2  0  0  0  0
 10 11  1  0  0  0  0
 11 12  2  0  0  0  0
 15 23  1  0  0  0  0
 15 16  1  0  0  0  0
 16 19  1  0  0  0  0
 19 22  1  0  0  0  0
 22  2  1  1  0  0  0
 22 23  1  0  0  0  0
 23 24  1  1  0  0  0
 24 25  1  0  0  0  0
 25 26  1  0  0  0  0
M  CHG  2  13  -1  18  -1
M  END
>  <CHROM.1>
78.85754983,-114.36523709,-147.22436408,-55.38819727,113.36413041,-68.99387751
-178.29215146,-80.88893971,2.13606268,-16.00711455,-94.17059222,-2.00373384
-0.55377056,-1.26795664

>  <Name>
ligand

>  <RI>
0

>  <Rbt.Current_Directory>
/home/itssahil/PROJECTS/Mol_Feturizer/New_Systems/rnas/2CKY

>  <Rbt.Executable>
rbdock ($Id: //depot/dev/client3/rdock/2013.1/src/exe/rbdock.cxx#4 $)

>  <Rbt.Library>
libRbt.so (2013.1, Build901 2013/11/27)

>  <Rbt.Parameter_File>
/export/apps/rDock/src/rDock_2013.1_src/data/scripts/dock_solv.prm

>  <Rbt.Receptor>
prm/pocket_docking_6.prm

>  <SCORE>
-19.5103

>  <SCORE.INTER>
-13.6282

>  <SCORE.INTER.CONST>
1

>  <SCORE.INTER.POLAR>
0

>  <SCORE.INTER.ROT>
8

>  <SCORE.INTER.SOLV>
12.0873

>  <SCORE.INTER.VDW>
-22.0479

>  <SCORE.INTER.norm>
-0.524163

>  <SCORE.INTRA>
-5.88207

>  <SCORE.INTRA.DIHEDRAL>
-10.6099

>  <SCORE.INTRA.DIHEDRAL.0>
16.4846

>  <SCORE.INTRA.POLAR>
0

>  <SCORE.INTRA.POLAR.0>
0

>  <SCORE.INTRA.REPUL>
0

>  <SCORE.INTRA.REPUL.0>
0

>  <SCORE.INTRA.SOLV>
3.90876

>  <SCORE.INTRA.SOLV.lig_0>
-82.6983

>  <SCORE.INTRA.VDW>
-2.53152

>  <SCORE.INTRA.VDW.0>
-2.11466

>  <SCORE.INTRA.norm>
-0.226233

>  <SCORE.RESTR>
0

>  <SCORE.RESTR.CAVITY>
0

>  <SCORE.RESTR.norm>
0

>  <SCORE.SYSTEM>
0

>  <SCORE.SYSTEM.CONST>
0

>  <SCORE.SYSTEM.DIHEDRAL>
0

>  <SCORE.SYSTEM.SOLV>
0

>  <SCORE.SYSTEM.norm>
0

>  <SCORE.heavy>
26

>  <SCORE.norm>
-0.750397

>  <RMSD>
3.427

$$$$
ligand
 OpenBabel11021811423D
libRbt.so/2013.1/901 2013/11/27
 26 27  0  0  0  0  0  0  0  0999 V2000
    0.5191  -19.2092  -86.6403 C   0  0  0  0  0  0  0  0  0  0  0  0
    4.4581  -15.3776  -93.5418 C   0  0  0  0  0  0  0  0  0  0  0  0
   -0.1757  -15.2959  -96.6175 P   0  0  2  0  0  0  0  0  0  0  0  0
   -1.4144  -13.0214  -95.6362 P   0  0  2  0  0  0  0  0  0  0  0  0
    3.2785  -16.3798  -90.7931 C   0  0  0  0  0  0  0  0  0  0  0  0
    1.2425  -17.3916  -89.7973 C   0  0  0  0  0  0  0  0  0  0  0  0
    2.5949  -17.1031  -89.6669 C   0  0  0  0  0  0  0  0  0  0  0  0
    3.2714  -17.5428  -88.5254 C   0  0  0  0  0  0  0  0  0  0  0  0
    4.5689  -17.3369  -88.2972 N   0  0  0  0  0  0  0  0  0  0  0  0
    2.5763  -18.2271  -87.5620 N   0  0  0  0  0  0  0  0  0  0  0  0
    1.2414  -18.4790  -87.7092 C   0  0  0  0  0  0  0  0  0  0  0  0
    0.5614  -18.0767  -88.8140 N   0  0  0  0  0  0  0  0  0  0  0  0
    0.0344  -14.7519  -98.0168 O   0  5  0  0  0  0  0  0  0  0  0  0
   -1.4482  -12.4058  -97.0170 O   0  0  0  0  0  0  0  0  0  0  0  0
    2.0716  -18.4681  -93.8836 S   0  0  0  0  0  0  0  0  0  0  0  0
    2.2202  -18.0251  -92.3223 C   0  0  0  0  0  0  0  0  0  0  0  0
   -1.4266  -16.1684  -96.6802 O   0  0  0  0  0  0  0  0  0  0  0  0
   -1.1638  -11.9817  -94.5630 O   0  5  0  0  0  0  0  0  0  0  0  0
    3.0533  -16.9444  -92.1023 N   0  0  0  0  0  0  0  0  0  0  0  0
   -0.1836  -14.0342  -95.6106 O   0  0  0  0  0  0  0  0  0  0  0  0
   -2.7344  -13.7264  -95.3986 O   0  0  0  0  0  0  0  0  0  0  0  0
    3.5455  -16.5157  -93.3104 C   0  0  1  0  0  0  0  0  0  0  0  0
    3.0503  -17.3008  -94.3634 C   0  0  2  0  0  0  0  0  0  0  0  0
    3.2170  -17.3001  -95.8630 C   0  0  0  0  0  0  0  0  0  0  0  0
    1.8745  -17.0942  -96.5726 C   0  0  0  0  0  0  0  0  0  0  0  0
    1.2538  -15.9141  -96.0773 O   0  0  0  0  0  0  0  0  0  0  0  0
  1 11  1  0  0  0  0
  3 13  1  6  0  0  0
  3 17  2  0  0  0  0
  3 20  1  0  0  0  0
  3 26  1  0  0  0  0
  4 14  1  6  0  0  0
  4 18  1  0  0  0  0
  4 21  2  0  0  0  0
  4 20  1  0  0  0  0
  5 19  1  0  0  0  0
  5  7  1  0  0  0  0
  6  7  2  0  0  0  0
  6 12  1  0  0  0  0
  7  8  1  0  0  0  0
  8  9  1  0  0  0  0
  8 10  2  0  0  0  0
 10 11  1  0  0  0  0
 11 12  2  0  0  0  0
 15 23  1  0  0  0  0
 15 16  1  0  0  0  0
 16 19  1  0  0  0  0
 19 22  1  0  0  0  0
 22  2  1  6  0  0  0
 22 23  1  0  0  0  0
 23 24  1  6  0  0  0
 24 25  1  0  0  0  0
 25 26  1  0  0  0  0
M  CHG  2  13  -1  18  -1
M  END
>  <CHROM.1>
70.28149917,3.17728457,-49.72499357,-61.83092555,60.04845474,54.13135213
177.36808033,-69.90940861,1.13709032,-16.12249773,-93.36964863,1.12389209
-0.63542365,1.76334490

>  <Name>
ligand

>  <RI>
0

>  <Rbt.Current_Directory>
/home/itssahil/PROJECTS/Mol_Feturizer/New_Systems/rnas/2CKY

>  <Rbt.Executable>
rbdock ($Id: //depot/dev/client3/rdock/2013.1/src/exe/rbdock.cxx#4 $)

>  <Rbt.Library>
libRbt.so (2013.1, Build901 2013/11/27)

>  <Rbt.Parameter_File>
/export/apps/rDock/src/rDock_2013.1_src/data/scripts/dock_solv.prm

>  <Rbt.Receptor>
prm/pocket_docking_5.prm

>  <SCORE>
-21.7953

>  <SCORE.INTER>
-16.4495

>  <SCORE.INTER.CONST>
1

>  <SCORE.INTER.POLAR>
0

>  <SCORE.INTER.ROT>
8

>  <SCORE.INTER.SOLV>
21.296

>  <SCORE.INTER.VDW>
-26.9983

>  <SCORE.INTER.norm>
-0.632672

>  <SCORE.INTRA>
-5.34581

>  <SCORE.INTRA.DIHEDRAL>
-10.91

>  <SCORE.INTRA.DIHEDRAL.0>
16.4846

>  <SCORE.INTRA.POLAR>
0

>  <SCORE.INTRA.POLAR.0>
0

>  <SCORE.INTRA.REPUL>
0

>  <SCORE.INTRA.REPUL.0>
0

>  <SCORE.INTRA.SOLV>
0.0239012

>  <SCORE.INTRA.SOLV.lig_0>
-82.6983

>  <SCORE.INTRA.VDW>
0.0972139

>  <SCORE.INTRA.VDW.0>
-2.11466

>  <SCORE.INTRA.norm>
-0.205608

>  <SCORE.RESTR>
0

>  <SCORE.RESTR.CAVITY>
0

>  <SCORE.RESTR.norm>
0

>  <SCORE.SYSTEM>
0

>  <SCORE.SYSTEM.CONST>
0

>  <SCORE.SYSTEM.DIHEDRAL>
0

>  <SCORE.SYSTEM.SOLV>
0

>  <SCORE.SYSTEM.norm>
0

>  <SCORE.heavy>
26

>  <SCORE.norm>
-0.83828

>  <RMSD>
3.429

$$$$
ligand
 OpenBabel11021811423D
libRbt.so/2013.1/901 2013/11/27
 26 27  0  0  0  0  0  0  0  0999 V2000
   -0.2988  -19.1382  -85.5918 C   0  0  0  0  0  0  0  0  0  0  0  0
    2.5203  -15.1384  -91.9938 C   0  0  0  0  0  0  0  0  0  0  0  0
   -0.6706  -12.0281  -95.9645 P   0  0  2  0  0  0  0  0  0  0  0  0
   -0.0901   -9.5771  -97.1160 P   0  0  2  0  0  0  0  0  0  0  0  0
    1.9507  -17.9742  -90.7347 C   0  0  0  0  0  0  0  0  0  0  0  0
    0.1841  -18.9157  -89.2675 C   0  0  0  0  0  0  0  0  0  0  0  0
    1.3908  -18.2350  -89.3646 C   0  0  0  0  0  0  0  0  0  0  0  0
    2.0567  -17.8716  -88.1904 C   0  0  0  0  0  0  0  0  0  0  0  0
    3.2244  -17.2287  -88.1593 N   0  0  0  0  0  0  0  0  0  0  0  0
    1.4897  -18.1803  -86.9810 N   0  0  0  0  0  0  0  0  0  0  0  0
    0.2913  -18.8336  -86.9171 C   0  0  0  0  0  0  0  0  0  0  0  0
   -0.3710  -19.2118  -88.0410 N   0  0  0  0  0  0  0  0  0  0  0  0
   -1.7796  -12.4323  -96.9158 O   0  5  0  0  0  0  0  0  0  0  0  0
   -1.4053   -9.6510  -97.8585 O   0  0  0  0  0  0  0  0  0  0  0  0
   -0.9909  -16.6046  -92.9346 S   0  0  0  0  0  0  0  0  0  0  0  0
   -0.1691  -17.6426  -91.9843 C   0  0  0  0  0  0  0  0  0  0  0  0
   -1.3552  -11.4469  -94.7303 O   0  0  0  0  0  0  0  0  0  0  0  0
    1.0048   -8.9715  -97.9705 O   0  5  0  0  0  0  0  0  0  0  0  0
    1.0893  -17.2129  -91.6075 N   0  0  0  0  0  0  0  0  0  0  0  0
    0.3409  -11.0761  -96.7870 O   0  0  0  0  0  0  0  0  0  0  0  0
   -0.3004   -8.7581  -95.8587 O   0  0  0  0  0  0  0  0  0  0  0  0
    1.3125  -15.9733  -92.1543 C   0  0  1  0  0  0  0  0  0  0  0  0
    0.2067  -15.5481  -92.9072 C   0  0  2  0  0  0  0  0  0  0  0  0
   -0.1296  -14.3100  -93.7013 C   0  0  0  0  0  0  0  0  0  0  0  0
    0.0938  -14.5325  -95.2009 C   0  0  0  0  0  0  0  0  0  0  0  0
    0.3835  -13.2880  -95.8257 O   0  0  0  0  0  0  0  0  0  0  0  0
  1 11  1  0  0  0  0
  3 13  1  6  0  0  0
  3 17  2  0  0  0  0
  3 20  1  0  0  0  0
  3 26  1  0  0  0  0
  4 14  1  6  0  0  0
  4 18  1  0  0  0  0
  4 21  2  0  0  0  0
  4 20  1  0  0  0  0
  5 19  1  0  0  0  0
  5  7  1  0  0  0  0
  6  7  2  0  0  0  0
  6 12  1  0  0  0  0
  7  8  1  0  0  0  0
  8  9  1  0  0  0  0
  8 10  2  0  0  0  0
 10 11  1  0  0  0  0
 11 12  2  0  0  0  0
 15 23  1  0  0  0  0
 15 16  1  0  0  0  0
 16 19  1  0  0  0  0
 19 22  1  0  0  0  0
 22  2  1  1  0  0  0
 22 23  1  0  0  0  0
 23 24  1  1  0  0  0
 24 25  1  0  0  0  0
 25 26  1  0  0  0  0
M  CHG  2  13  -1  18  -1
M  END
>  <CHROM.1>
74.55584410,-60.61197769,58.61730323,-56.01750067,-80.92262818,-153.01132199
-66.04645531,-68.13239092,0.22612772,-14.50600200,-93.03564576,-1.42366410
-0.72886734,-0.71820633

>  <Name>
ligand

>  <RI>
0

>  <Rbt.Current_Directory>
/home/itssahil/PROJECTS/Mol_Feturizer/New_Systems/rnas/2CKY

>  <Rbt.Executable>
rbdock ($Id: //depot/dev/client3/rdock/2013.1/src/exe/rbdock.cxx#4 $)

>  <Rbt.Library>
libRbt.so (2013.1, Build901 2013/11/27)

>  <Rbt.Parameter_File>
/export/apps/rDock/src/rDock_2013.1_src/data/scripts/dock_solv.prm

>  <Rbt.Receptor>
prm/pocket_docking_7.prm

>  <SCORE>
-19.6132

>  <SCORE.INTER>
-14.9514

>  <SCORE.INTER.CONST>
1

>  <SCORE.INTER.POLAR>
0

>  <SCORE.INTER.ROT>
8

>  <SCORE.INTER.SOLV>
22.4948

>  <SCORE.INTER.VDW>
-26.3992

>  <SCORE.INTER.norm>
-0.575052

>  <SCORE.INTRA>
-4.66182

>  <SCORE.INTRA.DIHEDRAL>
-8.66714

>  <SCORE.INTRA.DIHEDRAL.0>
16.4846

>  <SCORE.INTRA.POLAR>
0

>  <SCORE.INTRA.POLAR.0>
0

>  <SCORE.INTRA.REPUL>
0

>  <SCORE.INTRA.REPUL.0>
0

>  <SCORE.INTRA.SOLV>
1.498

>  <SCORE.INTRA.SOLV.lig_0>
-82.6983

>  <SCORE.INTRA.VDW>
-1.07725

>  <SCORE.INTRA.VDW.0>
-2.11466

>  <SCORE.INTRA.norm>
-0.179301

>  <SCORE.RESTR>
0

>  <SCORE.RESTR.CAVITY>
0

>  <SCORE.RESTR.norm>
0

>  <SCORE.SYSTEM>
0

>  <SCORE.SYSTEM.CONST>
0

>  <SCORE.SYSTEM.DIHEDRAL>
0

>  <SCORE.SYSTEM.SOLV>
0

>  <SCORE.SYSTEM.norm>
0

>  <SCORE.heavy>
26

>  <SCORE.norm>
-0.754353

>  <RMSD>
3.444

$$$$
ligand
 OpenBabel11021811423D
libRbt.so/2013.1/901 2013/11/27
 26 27  0  0  0  0  0  0  0  0999 V2000
   -0.0659  -18.9788  -85.8033 C   0  0  0  0  0  0  0  0  0  0  0  0
    0.2141  -15.7542  -92.3844 C   0  0  0  0  0  0  0  0  0  0  0  0
   -2.0658  -17.2345  -98.5433 P   0  0  2  0  0  0  0  0  0  0  0  0
   -3.2184  -14.7259  -98.3229 P   0  0  2  0  0  0  0  0  0  0  0  0
    2.0753  -17.8989  -91.0104 C   0  0  0  0  0  0  0  0  0  0  0  0
    0.2767  -18.6811  -89.4894 C   0  0  0  0  0  0  0  0  0  0  0  0
    1.5497  -18.1422  -89.6236 C   0  0  0  0  0  0  0  0  0  0  0  0
    2.3051  -17.9014  -88.4722 C   0  0  0  0  0  0  0  0  0  0  0  0
    3.5406  -17.4002  -88.4776 N   0  0  0  0  0  0  0  0  0  0  0  0
    1.7597  -18.1857  -87.2470 N   0  0  0  0  0  0  0  0  0  0  0  0
    0.4967  -18.6971  -87.1455 C   0  0  0  0  0  0  0  0  0  0  0  0
   -0.2546  -18.9548  -88.2473 N   0  0  0  0  0  0  0  0  0  0  0  0
   -0.7327  -17.8039  -98.9867 O   0  5  0  0  0  0  0  0  0  0  0  0
   -3.8396  -15.1590  -97.0140 O   0  0  0  0  0  0  0  0  0  0  0  0
   -0.2893  -19.3903  -93.7587 S   0  0  0  0  0  0  0  0  0  0  0  0
    0.8647  -19.3640  -92.6080 C   0  0  0  0  0  0  0  0  0  0  0  0
   -3.1215  -17.8561  -99.4540 O   0  0  0  0  0  0  0  0  0  0  0  0
   -4.1439  -14.9791  -99.4955 O   0  5  0  0  0  0  0  0  0  0  0  0
    1.1186  -18.1170  -92.0689 N   0  0  0  0  0  0  0  0  0  0  0  0
   -1.9214  -15.6267  -98.5406 O   0  0  0  0  0  0  0  0  0  0  0  0
   -2.8762  -13.2533  -98.2213 O   0  0  0  0  0  0  0  0  0  0  0  0
    0.2906  -17.2013  -92.6701 C   0  0  1  0  0  0  0  0  0  0  0  0
   -0.5350  -17.8180  -93.6232 C   0  0  2  0  0  0  0  0  0  0  0  0
   -1.6211  -17.3454  -94.5578 C   0  0  0  0  0  0  0  0  0  0  0  0
   -1.1005  -17.2081  -95.9925 C   0  0  0  0  0  0  0  0  0  0  0  0
   -2.1776  -17.3811  -96.9052 O   0  0  0  0  0  0  0  0  0  0  0  0
  1 11  1  0  0  0  0
  3 13  1  6  0  0  0
  3 17  2  0  0  0  0
  3 20  1  0  0  0  0
  3 26  1  0  0  0  0
  4 14  1  1  0  0  0
  4 18  1  0  0  0  0
  4 21  2  0  0  0  0
  4 20  1  0  0  0  0
  5 19  1  0  0  0  0
  5  7  1  0  0  0  0
  6  7  2  0  0  0  0
  6 12  1  0  0  0  0
  7  8  1  0  0  0  0
  8  9  1  0  0  0  0
  8 10  2  0  0  0  0
 10 11  1  0  0  0  0
 11 12  2  0  0  0  0
 15 23  1  0  0  0  0
 15 16  1  0  0  0  0
 16 19  1  0  0  0  0
 19 22  1  0  0  0  0
 22  2  1  1  0  0  0
 22 23  1  0  0  0  0
 23 24  1  1  0  0  0
 24 25  1  0  0  0  0
 25 26  1  0  0  0  0
M  CHG  2  13  -1  18  -1
M  END
>  <CHROM.1>
171.16509811,-84.02343923,6.81151898,56.27290523,-78.23206906,153.11139402
176.69324359,37.55264770,-0.79234735,-17.25055321,-94.07368530,0.74440566
-1.05548428,1.05840559

>  <Name>
ligand

>  <RI>
0

>  <Rbt.Current_Directory>
/home/itssahil/PROJECTS/Mol_Feturizer/New_Systems/rnas/2CKY

>  <Rbt.Executable>
rbdock ($Id: //depot/dev/client3/rdock/2013.1/src/exe/rbdock.cxx#4 $)

>  <Rbt.Library>
libRbt.so (2013.1, Build901 2013/11/27)

>  <Rbt.Parameter_File>
/export/apps/rDock/src/rDock_2013.1_src/data/scripts/dock_solv.prm

>  <Rbt.Receptor>
prm/pocket_docking_6.prm

>  <SCORE>
-24.1949

>  <SCORE.INTER>
-18.2992

>  <SCORE.INTER.CONST>
1

>  <SCORE.INTER.POLAR>
0

>  <SCORE.INTER.ROT>
8

>  <SCORE.INTER.SOLV>
23.4019

>  <SCORE.INTER.VDW>
-28.9334

>  <SCORE.INTER.norm>
-0.703815

>  <SCORE.INTRA>
-5.89567

>  <SCORE.INTRA.DIHEDRAL>
-8.38413

>  <SCORE.INTRA.DIHEDRAL.0>
16.4846

>  <SCORE.INTRA.POLAR>
0

>  <SCORE.INTRA.POLAR.0>
0

>  <SCORE.INTRA.REPUL>
0

>  <SCORE.INTRA.REPUL.0>
0

>  <SCORE.INTRA.SOLV>
-0.96564

>  <SCORE.INTRA.SOLV.lig_0>
-82.6983

>  <SCORE.INTRA.VDW>
-1.22079

>  <SCORE.INTRA.VDW.0>
-2.11466

>  <SCORE.INTRA.norm>
-0.226757

>  <SCORE.RESTR>
0

>  <SCORE.RESTR.CAVITY>
0

>  <SCORE.RESTR.norm>
0

>  <SCORE.SYSTEM>
0

>  <SCORE.SYSTEM.CONST>
0

>  <SCORE.SYSTEM.DIHEDRAL>
0

>  <SCORE.SYSTEM.SOLV>
0

>  <SCORE.SYSTEM.norm>
0

>  <SCORE.heavy>
26

>  <SCORE.norm>
-0.930571

>  <RMSD>
3.446

$$$$
ligand
 OpenBabel11021811423D
libRbt.so/2013.1/901 2013/11/27
 26 27  0  0  0  0  0  0  0  0999 V2000
    0.1197  -19.0438  -86.0537 C   0  0  0  0  0  0  0  0  0  0  0  0
    0.1515  -15.7408  -92.7565 C   0  0  0  0  0  0  0  0  0  0  0  0
    0.3272  -14.1206  -96.6150 P   0  0  2  0  0  0  0  0  0  0  0  0
   -2.3857  -13.8534  -97.1039 P   0  0  2  0  0  0  0  0  0  0  0  0
    2.3500  -17.1427  -90.9808 C   0  0  0  0  0  0  0  0  0  0  0  0
    2.4888  -17.6615  -88.5576 C   0  0  0  0  0  0  0  0  0  0  0  0
    1.7281  -17.6730  -89.7196 C   0  0  0  0  0  0  0  0  0  0  0  0
    0.4063  -18.1236  -89.6560 C   0  0  0  0  0  0  0  0  0  0  0  0
   -0.4214  -18.1680  -90.7003 N   0  0  0  0  0  0  0  0  0  0  0  0
   -0.0917  -18.5580  -88.4549 N   0  0  0  0  0  0  0  0  0  0  0  0
    0.6873  -18.5533  -87.3322 C   0  0  0  0  0  0  0  0  0  0  0  0
    1.9700  -18.1076  -87.3610 N   0  0  0  0  0  0  0  0  0  0  0  0
    0.1047  -12.9146  -95.7240 O   0  5  0  0  0  0  0  0  0  0  0  0
   -2.6501  -14.7590  -95.9222 O   0  0  0  0  0  0  0  0  0  0  0  0
    1.2635  -19.2499  -94.1029 S   0  0  0  0  0  0  0  0  0  0  0  0
    2.0824  -18.8675  -92.7466 C   0  0  0  0  0  0  0  0  0  0  0  0
    1.7247  -13.9632  -97.2084 O   0  0  0  0  0  0  0  0  0  0  0  0
   -3.3504  -14.1180  -98.2420 O   0  5  0  0  0  0  0  0  0  0  0  0
    1.7620  -17.6382  -92.2023 N   0  0  0  0  0  0  0  0  0  0  0  0
   -0.9225  -14.1988  -97.6339 O   0  0  0  0  0  0  0  0  0  0  0  0
   -2.4950  -12.4169  -96.6347 O   0  0  0  0  0  0  0  0  0  0  0  0
    0.7957  -17.0509  -92.9813 C   0  0  1  0  0  0  0  0  0  0  0  0
    0.4494  -17.8765  -94.0624 C   0  0  2  0  0  0  0  0  0  0  0  0
   -0.5285  -17.7792  -95.2073 C   0  0  0  0  0  0  0  0  0  0  0  0
   -0.0343  -16.8032  -96.2805 C   0  0  0  0  0  0  0  0  0  0  0  0
   -0.0790  -15.4765  -95.7699 O   0  0  0  0  0  0  0  0  0  0  0  0
  1 11  1  0  0  0  0
  3 13  1  1  0  0  0
  3 17  2  0  0  0  0
  3 20  1  0  0  0  0
  3 26  1  0  0  0  0
  4 14  1  1  0  0  0
  4 18  1  0  0  0  0
  4 21  2  0  0  0  0
  4 20  1  0  0  0  0
  5 19  1  0  0  0  0
  5  7  1  0  0  0  0
  6  7  2  0  0  0  0
  6 12  1  0  0  0  0
  7  8  1  0  0  0  0
  8  9  1  0  0  0  0
  8 10  2  0  0  0  0
 10 11  1  0  0  0  0
 11 12  2  0  0  0  0
 15 23  1  0  0  0  0
 15 16  1  0  0  0  0
 16 19  1  0  0  0  0
 19 22  1  0  0  0  0
 22  2  1  1  0  0  0
 22 23  1  0  0  0  0
 23 24  1  1  0  0  0
 24 25  1  0  0  0  0
 25 26  1  0  0  0  0
M  CHG  2  13  -1  18  -1
M  END
>  <CHROM.1>
-38.93739262,-81.21456488,156.86220397,-55.58470894,-105.54594910,-69.14780243
-178.19485527,178.46473736,0.07662748,-16.31477062,-93.61114655,1.19918235
-0.80246683,1.78940891

>  <Name>
ligand

>  <RI>
0

>  <Rbt.Current_Directory>
/home/itssahil/PROJECTS/Mol_Feturizer/New_Systems/rnas/2CKY

>  <Rbt.Executable>
rbdock ($Id: //depot/dev/client3/rdock/2013.1/src/exe/rbdock.cxx#4 $)

>  <Rbt.Library>
libRbt.so (2013.1, Build901 2013/11/27)

>  <Rbt.Parameter_File>
/export/apps/rDock/src/rDock_2013.1_src/data/scripts/dock_solv.prm

>  <Rbt.Receptor>
prm/pocket_docking_4.prm

>  <SCORE>
-21.5377

>  <SCORE.INTER>
-16.1148

>  <SCORE.INTER.CONST>
1

>  <SCORE.INTER.POLAR>
0

>  <SCORE.INTER.ROT>
8

>  <SCORE.INTER.SOLV>
10.1839

>  <SCORE.INTER.VDW>
-23.0712

>  <SCORE.INTER.norm>
-0.6198

>  <SCORE.INTRA>
-5.42293

>  <SCORE.INTRA.DIHEDRAL>
-11.1007

>  <SCORE.INTRA.DIHEDRAL.0>
16.4846

>  <SCORE.INTRA.POLAR>
0

>  <SCORE.INTRA.POLAR.0>
0

>  <SCORE.INTRA.REPUL>
0

>  <SCORE.INTRA.REPUL.0>
0

>  <SCORE.INTRA.SOLV>
4.63168

>  <SCORE.INTRA.SOLV.lig_0>
-82.6983

>  <SCORE.INTRA.VDW>
-2.18843

>  <SCORE.INTRA.VDW.0>
-2.11466

>  <SCORE.INTRA.norm>
-0.208574

>  <SCORE.RESTR>
0

>  <SCORE.RESTR.CAVITY>
0

>  <SCORE.RESTR.norm>
0

>  <SCORE.SYSTEM>
0

>  <SCORE.SYSTEM.CONST>
0

>  <SCORE.SYSTEM.DIHEDRAL>
0

>  <SCORE.SYSTEM.SOLV>
0

>  <SCORE.SYSTEM.norm>
0

>  <SCORE.heavy>
26

>  <SCORE.norm>
-0.828374

>  <RMSD>
3.479

$$$$
ligand
 OpenBabel11021811423D
libRbt.so/2013.1/901 2013/11/27
 26 27  0  0  0  0  0  0  0  0999 V2000
   -0.2593  -19.2444  -85.6303 C   0  0  0  0  0  0  0  0  0  0  0  0
    1.2598  -16.0993  -93.3173 C   0  0  0  0  0  0  0  0  0  0  0  0
   -2.6227  -14.8306  -96.8269 P   0  0  2  0  0  0  0  0  0  0  0  0
   -2.0353  -12.3565  -95.7295 P   0  0  2  0  0  0  0  0  0  0  0  0
    1.9349  -17.7385  -90.7080 C   0  0  0  0  0  0  0  0  0  0  0  0
    0.1074  -18.6074  -89.2708 C   0  0  0  0  0  0  0  0  0  0  0  0
    1.3965  -18.0969  -89.3514 C   0  0  0  0  0  0  0  0  0  0  0  0
    2.1540  -17.9898  -88.1813 C   0  0  0  0  0  0  0  0  0  0  0  0
    3.4040  -17.5279  -88.1373 N   0  0  0  0  0  0  0  0  0  0  0  0
    1.5953  -18.3728  -86.9895 N   0  0  0  0  0  0  0  0  0  0  0  0
    0.3170  -18.8532  -86.9389 C   0  0  0  0  0  0  0  0  0  0  0  0
   -0.4370  -18.9820  -88.0611 N   0  0  0  0  0  0  0  0  0  0  0  0
   -1.9958  -14.2454  -98.0769 O   0  5  0  0  0  0  0  0  0  0  0  0
   -3.3506  -11.9029  -96.3218 O   0  0  0  0  0  0  0  0  0  0  0  0
   -0.4599  -19.6187  -93.1774 S   0  0  0  0  0  0  0  0  0  0  0  0
    0.4560  -19.3721  -91.8521 C   0  0  0  0  0  0  0  0  0  0  0  0
   -4.1240  -14.9017  -97.0933 O   0  0  0  0  0  0  0  0  0  0  0  0
   -0.8700  -12.0525  -96.6489 O   0  5  0  0  0  0  0  0  0  0  0  0
    1.1113  -18.1557  -91.8174 N   0  0  0  0  0  0  0  0  0  0  0  0
   -2.1176  -13.9413  -95.5779 O   0  0  0  0  0  0  0  0  0  0  0  0
   -1.8542  -11.6672  -94.3924 O   0  0  0  0  0  0  0  0  0  0  0  0
    0.7945  -17.4532  -92.9539 C   0  0  1  0  0  0  0  0  0  0  0  0
   -0.0804  -18.1856  -93.7716 C   0  0  2  0  0  0  0  0  0  0  0  0
   -0.7650  -17.9357  -95.0927 C   0  0  0  0  0  0  0  0  0  0  0  0
   -1.5580  -16.6246  -95.0698 C   0  0  0  0  0  0  0  0  0  0  0  0
   -1.7795  -16.1824  -96.4034 O   0  0  0  0  0  0  0  0  0  0  0  0
  1 11  1  0  0  0  0
  3 13  1  6  0  0  0
  3 17  2  0  0  0  0
  3 20  1  0  0  0  0
  3 26  1  0  0  0  0
  4 14  1  6  0  0  0
  4 18  1  0  0  0  0
  4 21  2  0  0  0  0
  4 20  1  0  0  0  0
  5 19  1  0  0  0  0
  5  7  1  0  0  0  0
  6  7  2  0  0  0  0
  6 12  1  0  0  0  0
  7  8  1  0  0  0  0
  8  9  1  0  0  0  0
  8 10  2  0  0  0  0
 10 11  1  0  0  0  0
 11 12  2  0  0  0  0
 15 23  1  0  0  0  0
 15 16  1  0  0  0  0
 16 19  1  0  0  0  0
 19 22  1  0  0  0  0
 22  2  1  1  0  0  0
 22 23  1  0  0  0  0
 23 24  1  1  0  0  0
 24 25  1  0  0  0  0
 25 26  1  0  0  0  0
M  CHG  2  13  -1  18  -1
M  END
>  <CHROM.1>
40.97138342,-39.67111196,-8.89578553,48.51961627,125.71291667,159.37554187
178.51133237,146.44270070,-0.63506117,-16.30910664,-93.10231622,-0.22282640
-1.21968885,0.32957726

>  <Name>
ligand

>  <RI>
0

>  <Rbt.Current_Directory>
/home/itssahil/PROJECTS/Mol_Feturizer/New_Systems/rnas/2CKY

>  <Rbt.Executable>
rbdock ($Id: //depot/dev/client3/rdock/2013.1/src/exe/rbdock.cxx#4 $)

>  <Rbt.Library>
libRbt.so (2013.1, Build901 2013/11/27)

>  <Rbt.Parameter_File>
/export/apps/rDock/src/rDock_2013.1_src/data/scripts/dock_solv.prm

>  <Rbt.Receptor>
prm/pocket_docking_6.prm

>  <SCORE>
-23.2241

>  <SCORE.INTER>
-19.6454

>  <SCORE.INTER.CONST>
1

>  <SCORE.INTER.POLAR>
0

>  <SCORE.INTER.ROT>
8

>  <SCORE.INTER.SOLV>
24.3658

>  <SCORE.INTER.VDW>
-30.1522

>  <SCORE.INTER.norm>
-0.755593

>  <SCORE.INTRA>
-3.57874

>  <SCORE.INTRA.DIHEDRAL>
-8.19435

>  <SCORE.INTRA.DIHEDRAL.0>
16.4846

>  <SCORE.INTRA.POLAR>
0

>  <SCORE.INTRA.POLAR.0>
0

>  <SCORE.INTRA.REPUL>
0

>  <SCORE.INTRA.REPUL.0>
0

>  <SCORE.INTRA.SOLV>
-0.0705558

>  <SCORE.INTRA.SOLV.lig_0>
-82.6983

>  <SCORE.INTRA.VDW>
0.553715

>  <SCORE.INTRA.VDW.0>
-2.11466

>  <SCORE.INTRA.norm>
-0.137644

>  <SCORE.RESTR>
0

>  <SCORE.RESTR.CAVITY>
0

>  <SCORE.RESTR.norm>
0

>  <SCORE.SYSTEM>
0

>  <SCORE.SYSTEM.CONST>
0

>  <SCORE.SYSTEM.DIHEDRAL>
0

>  <SCORE.SYSTEM.SOLV>
0

>  <SCORE.SYSTEM.norm>
0

>  <SCORE.heavy>
26

>  <SCORE.norm>
-0.893237

>  <RMSD>
3.479

$$$$
ligand
 OpenBabel11021811423D
libRbt.so/2013.1/901 2013/11/27
 26 27  0  0  0  0  0  0  0  0999 V2000
    0.0604  -19.2169  -86.4310 C   0  0  0  0  0  0  0  0  0  0  0  0
    0.6683  -15.2886  -92.3045 C   0  0  0  0  0  0  0  0  0  0  0  0
   -2.5175  -15.0484  -96.6394 P   0  0  2  0  0  0  0  0  0  0  0  0
   -2.2657  -12.3416  -96.1102 P   0  0  2  0  0  0  0  0  0  0  0  0
    2.8667  -17.1120  -90.9653 C   0  0  0  0  0  0  0  0  0  0  0  0
    0.8770  -18.1322  -89.8878 C   0  0  0  0  0  0  0  0  0  0  0  0
    2.1642  -17.6314  -89.7423 C   0  0  0  0  0  0  0  0  0  0  0  0
    2.7691  -17.6813  -88.4830 C   0  0  0  0  0  0  0  0  0  0  0  0
    4.0021  -17.2439  -88.2259 N   0  0  0  0  0  0  0  0  0  0  0  0
    2.0672  -18.2042  -87.4279 N   0  0  0  0  0  0  0  0  0  0  0  0
    0.7944  -18.6715  -87.5977 C   0  0  0  0  0  0  0  0  0  0  0  0
    0.1870  -18.6491  -88.8123 N   0  0  0  0  0  0  0  0  0  0  0  0
   -3.1740  -15.8880  -97.7175 O   0  5  0  0  0  0  0  0  0  0  0  0
   -2.6129  -11.0475  -96.8113 O   0  0  0  0  0  0  0  0  0  0  0  0
    1.4474  -18.5578  -94.3215 S   0  0  0  0  0  0  0  0  0  0  0  0
    2.3719  -18.4734  -92.9819 C   0  0  0  0  0  0  0  0  0  0  0  0
   -3.2499  -15.3708  -95.3396 O   0  0  0  0  0  0  0  0  0  0  0  0
   -0.8010  -12.3979  -95.7268 O   0  5  0  0  0  0  0  0  0  0  0  0
    2.1722  -17.3452  -92.2090 N   0  0  0  0  0  0  0  0  0  0  0  0
   -2.5274  -13.5182  -97.1534 O   0  0  0  0  0  0  0  0  0  0  0  0
   -3.1442  -12.4663  -94.8820 O   0  0  0  0  0  0  0  0  0  0  0  0
    1.2041  -16.5723  -92.8012 C   0  0  1  0  0  0  0  0  0  0  0  0
    0.7357  -17.1688  -93.9824 C   0  0  2  0  0  0  0  0  0  0  0  0
   -0.3007  -16.8108  -95.0189 C   0  0  0  0  0  0  0  0  0  0  0  0
   -0.0060  -15.4474  -95.6533 C   0  0  0  0  0  0  0  0  0  0  0  0
   -0.8837  -15.2375  -96.7526 O   0  0  0  0  0  0  0  0  0  0  0  0
  1 11  1  0  0  0  0
  3 13  1  6  0  0  0
  3 17  2  0  0  0  0
  3 20  1  0  0  0  0
  3 26  1  0  0  0  0
  4 14  1  6  0  0  0
  4 18  1  0  0  0  0
  4 21  2  0  0  0  0
  4 20  1  0  0  0  0
  5 19  1  0  0  0  0
  5  7  1  0  0  0  0
  6  7  2  0  0  0  0
  6 12  1  0  0  0  0
  7  8  1  0  0  0  0
  8  9  1  0  0  0  0
  8 10  2  0  0  0  0
 10 11  1  0  0  0  0
 11 12  2  0  0  0  0
 15 23  1  0  0  0  0
 15 16  1  0  0  0  0
 16 19  1  0  0  0  0
 19 22  1  0  0  0  0
 22  2  1  1  0  0  0
 22 23  1  0  0  0  0
 23 24  1  1  0  0  0
 24 25  1  0  0  0  0
 25 26  1  0  0  0  0
M  CHG  2  13  -1  18  -1
M  END
>  <CHROM.1>
163.97341979,-90.88045055,-7.31965145,-168.69816728,-122.59623634,171.51703650
66.43796335,-135.45865823,-0.16256808,-15.97913467,-93.36392957,0.70522524
-0.97461936,1.34806286

>  <Name>
ligand

>  <RI>
0

>  <Rbt.Current_Directory>
/home/itssahil/PROJECTS/Mol_Feturizer/New_Systems/rnas/2CKY

>  <Rbt.Executable>
rbdock ($Id: //depot/dev/client3/rdock/2013.1/src/exe/rbdock.cxx#4 $)

>  <Rbt.Library>
libRbt.so (2013.1, Build901 2013/11/27)

>  <Rbt.Parameter_File>
/export/apps/rDock/src/rDock_2013.1_src/data/scripts/dock_solv.prm

>  <Rbt.Receptor>
prm/pocket_docking_5.prm

>  <SCORE>
-22.1704

>  <SCORE.INTER>
-17.7202

>  <SCORE.INTER.CONST>
1

>  <SCORE.INTER.POLAR>
0

>  <SCORE.INTER.ROT>
8

>  <SCORE.INTER.SOLV>
25.9963

>  <SCORE.INTER.VDW>
-29.4122

>  <SCORE.INTER.norm>
-0.681546

>  <SCORE.INTRA>
-4.45023

>  <SCORE.INTRA.DIHEDRAL>
-8.57266

>  <SCORE.INTRA.DIHEDRAL.0>
16.4846

>  <SCORE.INTRA.POLAR>
0

>  <SCORE.INTRA.POLAR.0>
0

>  <SCORE.INTRA.REPUL>
0

>  <SCORE.INTRA.REPUL.0>
0

>  <SCORE.INTRA.SOLV>
3.00056

>  <SCORE.INTRA.SOLV.lig_0>
-82.6983

>  <SCORE.INTRA.VDW>
-1.66417

>  <SCORE.INTRA.VDW.0>
-2.11466

>  <SCORE.INTRA.norm>
-0.171163

>  <SCORE.RESTR>
0

>  <SCORE.RESTR.CAVITY>
0

>  <SCORE.RESTR.norm>
0

>  <SCORE.SYSTEM>
0

>  <SCORE.SYSTEM.CONST>
0

>  <SCORE.SYSTEM.DIHEDRAL>
0

>  <SCORE.SYSTEM.SOLV>
0

>  <SCORE.SYSTEM.norm>
0

>  <SCORE.heavy>
26

>  <SCORE.norm>
-0.852708

>  <RMSD>
3.492

$$$$
ligand
 OpenBabel11021811423D
libRbt.so/2013.1/901 2013/11/27
 26 27  0  0  0  0  0  0  0  0999 V2000
    0.2178  -19.0222  -86.3237 C   0  0  0  0  0  0  0  0  0  0  0  0
    0.7450  -17.4647  -93.9008 C   0  0  0  0  0  0  0  0  0  0  0  0
   -1.8321  -12.5476  -96.8963 P   0  0  2  0  0  0  0  0  0  0  0  0
   -3.2044  -13.9362  -98.8608 P   0  0  2  0  0  0  0  0  0  0  0  0
    2.3405  -16.9487  -91.2288 C   0  0  0  0  0  0  0  0  0  0  0  0
    2.5109  -17.4936  -88.8133 C   0  0  0  0  0  0  0  0  0  0  0  0
    1.7484  -17.5256  -89.9737 C   0  0  0  0  0  0  0  0  0  0  0  0
    0.4499  -18.0400  -89.9136 C   0  0  0  0  0  0  0  0  0  0  0  0
   -0.3777  -18.1097  -90.9567 N   0  0  0  0  0  0  0  0  0  0  0  0
   -0.0233  -18.5143  -88.7175 N   0  0  0  0  0  0  0  0  0  0  0  0
    0.7577  -18.4875  -87.5966 C   0  0  0  0  0  0  0  0  0  0  0  0
    2.0174  -17.9804  -87.6219 N   0  0  0  0  0  0  0  0  0  0  0  0
   -3.0249  -12.9116  -96.0345 O   0  5  0  0  0  0  0  0  0  0  0  0
   -4.5685  -13.7042  -98.2509 O   0  0  0  0  0  0  0  0  0  0  0  0
    0.3218  -13.8331  -92.4882 S   0  0  0  0  0  0  0  0  0  0  0  0
    1.2855  -14.7198  -91.5180 C   0  0  0  0  0  0  0  0  0  0  0  0
   -1.3644  -11.1740  -96.4226 O   0  0  0  0  0  0  0  0  0  0  0  0
   -2.5495  -15.1883  -98.3138 O   0  5  0  0  0  0  0  0  0  0  0  0
    1.4861  -16.0227  -91.9330 N   0  0  0  0  0  0  0  0  0  0  0  0
   -2.2911  -12.7005  -98.4364 O   0  0  0  0  0  0  0  0  0  0  0  0
   -3.3668  -14.0320 -100.3642 O   0  0  0  0  0  0  0  0  0  0  0  0
    0.7949  -16.2230  -93.1025 C   0  0  1  0  0  0  0  0  0  0  0  0
    0.1185  -15.0569  -93.4940 C   0  0  2  0  0  0  0  0  0  0  0  0
   -0.7604  -14.6751  -94.6594 C   0  0  0  0  0  0  0  0  0  0  0  0
    0.0735  -14.1963  -95.8526 C   0  0  0  0  0  0  0  0  0  0  0  0
   -0.7934  -13.8275  -96.9181 O   0  0  0  0  0  0  0  0  0  0  0  0
  1 11  1  0  0  0  0
  3 13  1  1  0  0  0
  3 17  2  0  0  0  0
  3 20  1  0  0  0  0
  3 26  1  0  0  0  0
  4 14  1  1  0  0  0
  4 18  1  0  0  0  0
  4 21  2  0  0  0  0
  4 20  1  0  0  0  0
  5 19  1  0  0  0  0
  5  7  1  0  0  0  0
  6  7  2  0  0  0  0
  6 12  1  0  0  0  0
  7  8  1  0  0  0  0
  8  9  1  0  0  0  0
  8 10  2  0  0  0  0
 10 11  1  0  0  0  0
 11 12  2  0  0  0  0
 15 23  1  0  0  0  0
 15 16  1  0  0  0  0
 16 19  1  0  0  0  0
 19 22  1  0  0  0  0
 22  2  1  6  0  0  0
 22 23  1  0  0  0  0
 23 24  1  6  0  0  0
 24 25  1  0  0  0  0
 25 26  1  0  0  0  0
M  CHG  2  13  -1  18  -1
M  END
>  <CHROM.1>
-40.74800669,76.71464074,-130.48200017,69.99522821,93.20219973,-179.08566972
66.95071279,-75.75676851,-0.62117080,-15.18856331,-93.95428308,0.99035594
0.87551905,2.48820437

>  <Name>
ligand

>  <RI>
0

>  <Rbt.Current_Directory>
/home/itssahil/PROJECTS/Mol_Feturizer/New_Systems/rnas/2CKY

>  <Rbt.Executable>
rbdock ($Id: //depot/dev/client3/rdock/2013.1/src/exe/rbdock.cxx#4 $)

>  <Rbt.Library>
libRbt.so (2013.1, Build901 2013/11/27)

>  <Rbt.Parameter_File>
/export/apps/rDock/src/rDock_2013.1_src/data/scripts/dock_solv.prm

>  <Rbt.Receptor>
prm/pocket_docking_6.prm

>  <SCORE>
-22.7935

>  <SCORE.INTER>
-18.5126

>  <SCORE.INTER.CONST>
1

>  <SCORE.INTER.POLAR>
0

>  <SCORE.INTER.ROT>
8

>  <SCORE.INTER.SOLV>
16.284

>  <SCORE.INTER.VDW>
-26.7031

>  <SCORE.INTER.norm>
-0.712024

>  <SCORE.INTRA>
-4.28091

>  <SCORE.INTRA.DIHEDRAL>
-10.5175

>  <SCORE.INTRA.DIHEDRAL.0>
16.4846

>  <SCORE.INTRA.POLAR>
0

>  <SCORE.INTRA.POLAR.0>
0

>  <SCORE.INTRA.REPUL>
0

>  <SCORE.INTRA.REPUL.0>
0

>  <SCORE.INTRA.SOLV>
5.31988

>  <SCORE.INTRA.SOLV.lig_0>
-82.6983

>  <SCORE.INTRA.VDW>
-1.68213

>  <SCORE.INTRA.VDW.0>
-2.11466

>  <SCORE.INTRA.norm>
-0.16465

>  <SCORE.RESTR>
0

>  <SCORE.RESTR.CAVITY>
0

>  <SCORE.RESTR.norm>
0

>  <SCORE.SYSTEM>
0

>  <SCORE.SYSTEM.CONST>
0

>  <SCORE.SYSTEM.DIHEDRAL>
0

>  <SCORE.SYSTEM.SOLV>
0

>  <SCORE.SYSTEM.norm>
0

>  <SCORE.heavy>
26

>  <SCORE.norm>
-0.876674

>  <RMSD>
3.508

$$$$
ligand
 OpenBabel11021811423D
libRbt.so/2013.1/901 2013/11/27
 26 27  0  0  0  0  0  0  0  0999 V2000
    3.2144  -17.4077  -88.4360 C   0  0  0  0  0  0  0  0  0  0  0  0
   -1.8767  -15.9867  -94.9688 C   0  0  0  0  0  0  0  0  0  0  0  0
    2.3212  -16.3400  -98.3364 P   0  0  2  0  0  0  0  0  0  0  0  0
    3.6026  -16.1990  -95.8852 P   0  0  2  0  0  0  0  0  0  0  0  0
   -1.1757  -17.1261  -92.1119 C   0  0  0  0  0  0  0  0  0  0  0  0
   -0.0663  -18.0024  -90.0719 C   0  0  0  0  0  0  0  0  0  0  0  0
   -0.0093  -17.1467  -91.1644 C   0  0  0  0  0  0  0  0  0  0  0  0
    1.1460  -16.3858  -91.3657 C   0  0  0  0  0  0  0  0  0  0  0  0
    1.3200  -15.5422  -92.3835 N   0  0  0  0  0  0  0  0  0  0  0  0
    2.1777  -16.4925  -90.4692 N   0  0  0  0  0  0  0  0  0  0  0  0
    2.0847  -17.3287  -89.3925 C   0  0  0  0  0  0  0  0  0  0  0  0
    0.9807  -18.0906  -89.1797 N   0  0  0  0  0  0  0  0  0  0  0  0
    3.5590  -17.1629  -98.6346 O   0  5  0  0  0  0  0  0  0  0  0  0
    3.0919  -17.5803  -95.5418 O   0  0  0  0  0  0  0  0  0  0  0  0
   -0.2233  -19.5395  -95.0509 S   0  0  0  0  0  0  0  0  0  0  0  0
   -0.3639  -19.0049  -93.5177 C   0  0  0  0  0  0  0  0  0  0  0  0
    2.0619  -15.4906  -99.5779 O   0  0  0  0  0  0  0  0  0  0  0  0
    3.6137  -15.2869  -94.6754 O   0  5  0  0  0  0  0  0  0  0  0  0
   -0.9305  -17.7508  -93.3898 N   0  0  0  0  0  0  0  0  0  0  0  0
    2.5809  -15.5760  -96.9383 O   0  0  0  0  0  0  0  0  0  0  0  0
    4.9970  -16.3384  -96.4614 O   0  0  0  0  0  0  0  0  0  0  0  0
   -1.2398  -17.2785  -94.6416 C   0  0  1  0  0  0  0  0  0  0  0  0
   -0.8870  -18.2082  -95.6323 C   0  0  2  0  0  0  0  0  0  0  0  0
   -0.9944  -18.2551  -97.1366 C   0  0  0  0  0  0  0  0  0  0  0  0
   -0.2432  -17.0875  -97.7852 C   0  0  0  0  0  0  0  0  0  0  0  0
    1.1550  -17.3453  -97.7475 O   0  0  0  0  0  0  0  0  0  0  0  0
  1 11  1  0  0  0  0
  3 13  1  6  0  0  0
  3 17  2  0  0  0  0
  3 20  1  0  0  0  0
  3 26  1  0  0  0  0
  4 14  1  1  0  0  0
  4 18  1  0  0  0  0
  4 21  2  0  0  0  0
  4 20  1  0  0  0  0
  5 19  1  0  0  0  0
  5  7  1  0  0  0  0
  6  7  2  0  0  0  0
  6 12  1  0  0  0  0
  7  8  1  0  0  0  0
  8  9  1  0  0  0  0
  8 10  2  0  0  0  0
 10 11  1  0  0  0  0
 11 12  2  0  0  0  0
 15 23  1  0  0  0  0
 15 16  1  0  0  0  0
 16 19  1  0  0  0  0
 19 22  1  0  0  0  0
 22  2  1  1  0  0  0
 22 23  1  0  0  0  0
 23 24  1  1  0  0  0
 24 25  1  0  0  0  0
 25 26  1  0  0  0  0
M  CHG  2  13  -1  18  -1
M  END
>  <CHROM.1>
-25.62434104,48.82563180,-107.32278343,-58.76760501,-121.45055868,76.06107865
-179.82780953,-156.90182505,1.33219733,-17.07344812,-94.66532497,-1.75446122
-0.37691184,-1.52624249

>  <Name>
ligand

>  <RI>
0

>  <Rbt.Current_Directory>
/home/itssahil/PROJECTS/Mol_Feturizer/New_Systems/rnas/2CKY

>  <Rbt.Executable>
rbdock ($Id: //depot/dev/client3/rdock/2013.1/src/exe/rbdock.cxx#4 $)

>  <Rbt.Library>
libRbt.so (2013.1, Build901 2013/11/27)

>  <Rbt.Parameter_File>
/export/apps/rDock/src/rDock_2013.1_src/data/scripts/dock_solv.prm

>  <Rbt.Receptor>
prm/pocket_docking_4.prm

>  <SCORE>
-18.5112

>  <SCORE.INTER>
-13.2583

>  <SCORE.INTER.CONST>
1

>  <SCORE.INTER.POLAR>
0

>  <SCORE.INTER.ROT>
8

>  <SCORE.INTER.SOLV>
13.7062

>  <SCORE.INTER.VDW>
-22.3409

>  <SCORE.INTER.norm>
-0.509936

>  <SCORE.INTRA>
-5.26661

>  <SCORE.INTRA.DIHEDRAL>
-8.79226

>  <SCORE.INTRA.DIHEDRAL.0>
16.4846

>  <SCORE.INTRA.POLAR>
0

>  <SCORE.INTRA.POLAR.0>
0

>  <SCORE.INTRA.REPUL>
0.0120284

>  <SCORE.INTRA.REPUL.0>
0

>  <SCORE.INTRA.SOLV>
3.34818

>  <SCORE.INTRA.SOLV.lig_0>
-82.6983

>  <SCORE.INTRA.VDW>
-2.60471

>  <SCORE.INTRA.VDW.0>
-2.11466

>  <SCORE.INTRA.norm>
-0.202562

>  <SCORE.RESTR>
0.0137001

>  <SCORE.RESTR.CAVITY>
0.0137001

>  <SCORE.RESTR.norm>
0.000526928

>  <SCORE.SYSTEM>
0

>  <SCORE.SYSTEM.CONST>
0

>  <SCORE.SYSTEM.DIHEDRAL>
0

>  <SCORE.SYSTEM.SOLV>
0

>  <SCORE.SYSTEM.norm>
0

>  <SCORE.heavy>
26

>  <SCORE.norm>
-0.711971

>  <RMSD>
3.526

$$$$
ligand
 OpenBabel11021811423D
libRbt.so/2013.1/901 2013/11/27
 26 27  0  0  0  0  0  0  0  0999 V2000
    0.0443  -19.2317  -86.0335 C   0  0  0  0  0  0  0  0  0  0  0  0
   -0.3349  -16.2913  -92.4821 C   0  0  0  0  0  0  0  0  0  0  0  0
   -0.9293  -13.8905  -96.6373 P   0  0  2  0  0  0  0  0  0  0  0  0
   -3.3343  -14.6076  -97.8089 P   0  0  2  0  0  0  0  0  0  0  0  0
    2.2102  -17.4749  -91.0423 C   0  0  0  0  0  0  0  0  0  0  0  0
    0.4211  -18.4893  -89.6529 C   0  0  0  0  0  0  0  0  0  0  0  0
    1.6765  -17.8974  -89.7023 C   0  0  0  0  0  0  0  0  0  0  0  0
    2.4093  -17.7700  -88.5187 C   0  0  0  0  0  0  0  0  0  0  0  0
    3.6270  -17.2319  -88.4452 N   0  0  0  0  0  0  0  0  0  0  0  0
    1.8592  -18.2146  -87.3443 N   0  0  0  0  0  0  0  0  0  0  0  0
    0.6131  -18.7752  -87.3240 C   0  0  0  0  0  0  0  0  0  0  0  0
   -0.1156  -18.9250  -88.4604 N   0  0  0  0  0  0  0  0  0  0  0  0
   -1.1307  -12.5005  -97.2078 O   0  5  0  0  0  0  0  0  0  0  0  0
   -3.6343  -13.1695  -98.1673 O   0  0  0  0  0  0  0  0  0  0  0  0
    2.4042  -13.6093  -91.6651 S   0  0  0  0  0  0  0  0  0  0  0  0
    2.8701  -15.0837  -91.1501 C   0  0  0  0  0  0  0  0  0  0  0  0
    0.1164  -14.5682  -97.5188 O   0  0  0  0  0  0  0  0  0  0  0  0
   -4.5887  -15.3642  -97.4223 O   0  5  0  0  0  0  0  0  0  0  0  0
    1.9598  -16.0961  -91.3879 N   0  0  0  0  0  0  0  0  0  0  0  0
   -2.3860  -14.5776  -96.5279 O   0  0  0  0  0  0  0  0  0  0  0  0
   -2.6611  -15.2624  -98.9980 O   0  0  0  0  0  0  0  0  0  0  0  0
    0.8667  -15.5634  -92.0258 C   0  0  1  0  0  0  0  0  0  0  0  0
    1.0244  -14.1834  -92.2286 C   0  0  2  0  0  0  0  0  0  0  0  0
    0.1940  -13.0984  -92.8686 C   0  0  0  0  0  0  0  0  0  0  0  0
    0.3829  -13.0763  -94.3892 C   0  0  0  0  0  0  0  0  0  0  0  0
   -0.6992  -13.7590  -95.0103 O   0  0  0  0  0  0  0  0  0  0  0  0
  1 11  1  0  0  0  0
  3 13  1  6  0  0  0
  3 17  2  0  0  0  0
  3 20  1  0  0  0  0
  3 26  1  0  0  0  0
  4 14  1  6  0  0  0
  4 18  1  0  0  0  0
  4 21  2  0  0  0  0
  4 20  1  0  0  0  0
  5 19  1  0  0  0  0
  5  7  1  0  0  0  0
  6  7  2  0  0  0  0
  6 12  1  0  0  0  0
  7  8  1  0  0  0  0
  8  9  1  0  0  0  0
  8 10  2  0  0  0  0
 10 11  1  0  0  0  0
 11 12  2  0  0  0  0
 15 23  1  0  0  0  0
 15 16  1  0  0  0  0
 16 19  1  0  0  0  0
 19 22  1  0  0  0  0
 22  2  1  6  0  0  0
 22 23  1  0  0  0  0
 23 24  1  6  0  0  0
 24 25  1  0  0  0  0
 25 26  1  0  0  0  0
M  CHG  2  13  -1  18  -1
M  END
>  <CHROM.1>
52.29072991,94.34049873,94.31258566,-62.56568561,96.96814231,99.03225347
176.24887316,-62.58905338,-0.09237028,-15.43063856,-93.23891116,1.08509671
0.61372556,2.24906008

>  <Name>
ligand

>  <RI>
0

>  <Rbt.Current_Directory>
/home/itssahil/PROJECTS/Mol_Feturizer/New_Systems/rnas/2CKY

>  <Rbt.Executable>
rbdock ($Id: //depot/dev/client3/rdock/2013.1/src/exe/rbdock.cxx#4 $)

>  <Rbt.Library>
libRbt.so (2013.1, Build901 2013/11/27)

>  <Rbt.Parameter_File>
/export/apps/rDock/src/rDock_2013.1_src/data/scripts/dock_solv.prm

>  <Rbt.Receptor>
prm/pocket_docking_6.prm

>  <SCORE>
-19.8808

>  <SCORE.INTER>
-14.9005

>  <SCORE.INTER.CONST>
1

>  <SCORE.INTER.POLAR>
0

>  <SCORE.INTER.ROT>
8

>  <SCORE.INTER.SOLV>
20.5466

>  <SCORE.INTER.VDW>
-25.7159

>  <SCORE.INTER.norm>
-0.573097

>  <SCORE.INTRA>
-4.98024

>  <SCORE.INTRA.DIHEDRAL>
-7.219

>  <SCORE.INTRA.DIHEDRAL.0>
16.4846

>  <SCORE.INTRA.POLAR>
0

>  <SCORE.INTRA.POLAR.0>
0

>  <SCORE.INTRA.REPUL>
0

>  <SCORE.INTRA.REPUL.0>
0

>  <SCORE.INTRA.SOLV>
1.06471

>  <SCORE.INTRA.SOLV.lig_0>
-82.6983

>  <SCORE.INTRA.VDW>
-1.9031

>  <SCORE.INTRA.VDW.0>
-2.11466

>  <SCORE.INTRA.norm>
-0.191548

>  <SCORE.RESTR>
0

>  <SCORE.RESTR.CAVITY>
0

>  <SCORE.RESTR.norm>
0

>  <SCORE.SYSTEM>
0

>  <SCORE.SYSTEM.CONST>
0

>  <SCORE.SYSTEM.DIHEDRAL>
0

>  <SCORE.SYSTEM.SOLV>
0

>  <SCORE.SYSTEM.norm>
0

>  <SCORE.heavy>
26

>  <SCORE.norm>
-0.764645

>  <RMSD>
3.583

$$$$
ligand
 OpenBabel11021811423D
libRbt.so/2013.1/901 2013/11/27
 26 27  0  0  0  0  0  0  0  0999 V2000
    2.4675  -17.5646  -88.7938 C   0  0  0  0  0  0  0  0  0  0  0  0
   -1.4410  -16.1028  -95.1844 C   0  0  0  0  0  0  0  0  0  0  0  0
    2.8148  -16.2609  -99.7652 P   0  0  2  0  0  0  0  0  0  0  0  0
    5.2129  -16.2170  -98.3804 P   0  0  2  0  0  0  0  0  0  0  0  0
   -1.5886  -18.1635  -92.8005 C   0  0  0  0  0  0  0  0  0  0  0  0
   -0.1127  -16.7921  -91.3509 C   0  0  0  0  0  0  0  0  0  0  0  0
   -0.5051  -18.0587  -91.7643 C   0  0  0  0  0  0  0  0  0  0  0  0
    0.0818  -19.1763  -91.1637 C   0  0  0  0  0  0  0  0  0  0  0  0
   -0.2233  -20.4379  -91.4686 N   0  0  0  0  0  0  0  0  0  0  0  0
    1.0392  -18.9883  -90.2006 N   0  0  0  0  0  0  0  0  0  0  0  0
    1.4188  -17.7295  -89.8284 C   0  0  0  0  0  0  0  0  0  0  0  0
    0.8556  -16.6256  -90.3842 N   0  0  0  0  0  0  0  0  0  0  0  0
    3.2637  -16.9715 -101.0268 O   0  5  0  0  0  0  0  0  0  0  0  0
    6.0433  -16.7661  -99.5186 O   0  0  0  0  0  0  0  0  0  0  0  0
   -0.2590  -19.7139  -96.1467 S   0  0  0  0  0  0  0  0  0  0  0  0
   -0.6972  -19.6501  -94.5782 C   0  0  0  0  0  0  0  0  0  0  0  0
    2.8487  -14.7675 -100.0793 O   0  0  0  0  0  0  0  0  0  0  0  0
    5.7239  -16.6870  -97.0337 O   0  5  0  0  0  0  0  0  0  0  0  0
   -1.1218  -18.4086  -94.1442 N   0  0  0  0  0  0  0  0  0  0  0  0
    3.7402  -16.8009  -98.5578 O   0  0  0  0  0  0  0  0  0  0  0  0
    5.2373  -14.7042  -98.4622 O   0  0  0  0  0  0  0  0  0  0  0  0
   -1.0624  -17.5305  -95.1981 C   0  0  1  0  0  0  0  0  0  0  0  0
   -0.5977  -18.1677  -96.3594 C   0  0  2  0  0  0  0  0  0  0  0  0
   -0.3462  -17.7371  -97.7834 C   0  0  0  0  0  0  0  0  0  0  0  0
    0.9367  -16.9065  -97.8957 C   0  0  0  0  0  0  0  0  0  0  0  0
    1.4297  -16.9754  -99.2281 O   0  0  0  0  0  0  0  0  0  0  0  0
  1 11  1  0  0  0  0
  3 13  1  6  0  0  0
  3 17  2  0  0  0  0
  3 20  1  0  0  0  0
  3 26  1  0  0  0  0
  4 14  1  6  0  0  0
  4 18  1  0  0  0  0
  4 21  2  0  0  0  0
  4 20  1  0  0  0  0
  5 19  1  0  0  0  0
  5  7  1  0  0  0  0
  6  7  2  0  0  0  0
  6 12  1  0  0  0  0
  7  8  1  0  0  0  0
  8  9  1  0  0  0  0
  8 10  2  0  0  0  0
 10 11  1  0  0  0  0
 11 12  2  0  0  0  0
 15 23  1  0  0  0  0
 15 16  1  0  0  0  0
 16 19  1  0  0  0  0
 19 22  1  0  0  0  0
 22  2  1  6  0  0  0
 22 23  1  0  0  0  0
 23 24  1  6  0  0  0
 24 25  1  0  0  0  0
 25 26  1  0  0  0  0
M  CHG  2  13  -1  18  -1
M  END
>  <CHROM.1>
79.31418237,77.01038985,100.22040184,-71.17260661,-104.95781593,156.74390336
-178.04829914,158.67989773,1.63619135,-17.38924758,-95.81112974,-2.04230730
-0.35434696,-1.48426422

>  <Name>
ligand

>  <RI>
0

>  <Rbt.Current_Directory>
/home/itssahil/PROJECTS/Mol_Feturizer/New_Systems/rnas/2CKY

>  <Rbt.Executable>
rbdock ($Id: //depot/dev/client3/rdock/2013.1/src/exe/rbdock.cxx#4 $)

>  <Rbt.Library>
libRbt.so (2013.1, Build901 2013/11/27)

>  <Rbt.Parameter_File>
/export/apps/rDock/src/rDock_2013.1_src/data/scripts/dock_solv.prm

>  <Rbt.Receptor>
prm/pocket_docking_6.prm

>  <SCORE>
-16.1767

>  <SCORE.INTER>
-10.9838

>  <SCORE.INTER.CONST>
1

>  <SCORE.INTER.POLAR>
0

>  <SCORE.INTER.ROT>
8

>  <SCORE.INTER.SOLV>
24.0779

>  <SCORE.INTER.VDW>
-24.2818

>  <SCORE.INTER.norm>
-0.422454

>  <SCORE.INTRA>
-5.19286

>  <SCORE.INTRA.DIHEDRAL>
-8.69823

>  <SCORE.INTRA.DIHEDRAL.0>
16.4846

>  <SCORE.INTRA.POLAR>
0

>  <SCORE.INTRA.POLAR.0>
0

>  <SCORE.INTRA.REPUL>
0

>  <SCORE.INTRA.REPUL.0>
0

>  <SCORE.INTRA.SOLV>
1.10819

>  <SCORE.INTRA.SOLV.lig_0>
-82.6983

>  <SCORE.INTRA.VDW>
-1.39784

>  <SCORE.INTRA.VDW.0>
-2.11466

>  <SCORE.INTRA.norm>
-0.199726

>  <SCORE.RESTR>
0

>  <SCORE.RESTR.CAVITY>
0

>  <SCORE.RESTR.norm>
0

>  <SCORE.SYSTEM>
0

>  <SCORE.SYSTEM.CONST>
0

>  <SCORE.SYSTEM.DIHEDRAL>
0

>  <SCORE.SYSTEM.SOLV>
0

>  <SCORE.SYSTEM.norm>
0

>  <SCORE.heavy>
26

>  <SCORE.norm>
-0.622179

>  <RMSD>
3.604

$$$$
ligand
 OpenBabel11021811423D
libRbt.so/2013.1/901 2013/11/27
 26 27  0  0  0  0  0  0  0  0999 V2000
    0.6750  -18.8022  -86.6295 C   0  0  0  0  0  0  0  0  0  0  0  0
    0.1466  -15.5477  -92.5071 C   0  0  0  0  0  0  0  0  0  0  0  0
   -2.6974  -14.3855  -98.1462 P   0  0  2  0  0  0  0  0  0  0  0  0
   -2.4925  -12.0740  -96.6343 P   0  0  2  0  0  0  0  0  0  0  0  0
    2.2623  -17.8432  -92.0541 C   0  0  0  0  0  0  0  0  0  0  0  0
    2.5316  -17.5723  -89.6016 C   0  0  0  0  0  0  0  0  0  0  0  0
    1.8208  -18.1435  -90.6492 C   0  0  0  0  0  0  0  0  0  0  0  0
    0.6989  -18.9244  -90.3564 C   0  0  0  0  0  0  0  0  0  0  0  0
   -0.0668  -19.5112  -91.2769 N   0  0  0  0  0  0  0  0  0  0  0  0
    0.3466  -19.1183  -89.0458 N   0  0  0  0  0  0  0  0  0  0  0  0
    1.0772  -18.5592  -88.0354 C   0  0  0  0  0  0  0  0  0  0  0  0
    2.1631  -17.7842  -88.2904 N   0  0  0  0  0  0  0  0  0  0  0  0
   -1.8549  -15.1202  -99.1701 O   0  5  0  0  0  0  0  0  0  0  0  0
   -3.8039  -11.6628  -97.2649 O   0  0  0  0  0  0  0  0  0  0  0  0
   -0.3321  -18.6249  -94.8871 S   0  0  0  0  0  0  0  0  0  0  0  0
    0.9467  -18.8517  -93.9026 C   0  0  0  0  0  0  0  0  0  0  0  0
   -4.0310  -14.0843  -98.8251 O   0  0  0  0  0  0  0  0  0  0  0  0
   -1.5348  -10.9059  -96.5159 O   0  5  0  0  0  0  0  0  0  0  0  0
    1.1996  -17.8100  -93.0302 N   0  0  0  0  0  0  0  0  0  0  0  0
   -1.8217  -13.1385  -97.6131 O   0  0  0  0  0  0  0  0  0  0  0  0
   -2.7863  -12.6638  -95.2699 O   0  0  0  0  0  0  0  0  0  0  0  0
    0.2614  -16.8283  -93.2341 C   0  0  1  0  0  0  0  0  0  0  0  0
   -0.6389  -17.1942  -94.2470 C   0  0  2  0  0  0  0  0  0  0  0  0
   -1.8501  -16.5537  -94.8788 C   0  0  0  0  0  0  0  0  0  0  0  0
   -1.4744  -15.7859  -96.1507 C   0  0  0  0  0  0  0  0  0  0  0  0
   -2.6469  -15.2254  -96.7286 O   0  0  0  0  0  0  0  0  0  0  0  0
  1 11  1  0  0  0  0
  3 13  1  6  0  0  0
  3 17  2  0  0  0  0
  3 20  1  0  0  0  0
  3 26  1  0  0  0  0
  4 14  1  6  0  0  0
  4 18  1  0  0  0  0
  4 21  2  0  0  0  0
  4 20  1  0  0  0  0
  5 19  1  0  0  0  0
  5  7  1  0  0  0  0
  6  7  2  0  0  0  0
  6 12  1  0  0  0  0
  7  8  1  0  0  0  0
  8  9  1  0  0  0  0
  8 10  2  0  0  0  0
 10 11  1  0  0  0  0
 11 12  2  0  0  0  0
 15 23  1  0  0  0  0
 15 16  1  0  0  0  0
 16 19  1  0  0  0  0
 19 22  1  0  0  0  0
 22  2  1  1  0  0  0
 22 23  1  0  0  0  0
 23 24  1  1  0  0  0
 24 25  1  0  0  0  0
 25 26  1  0  0  0  0
M  CHG  2  13  -1  18  -1
M  END
>  <CHROM.1>
173.48795090,-101.89834768,-148.08509987,-49.59238181,-85.75291669,178.68145063
-176.82746565,44.10100912,-0.80846043,-15.96066138,-94.18559038,0.10241164
-1.17678967,0.70673435

>  <Name>
ligand

>  <RI>
0

>  <Rbt.Current_Directory>
/home/itssahil/PROJECTS/Mol_Feturizer/New_Systems/rnas/2CKY

>  <Rbt.Executable>
rbdock ($Id: //depot/dev/client3/rdock/2013.1/src/exe/rbdock.cxx#4 $)

>  <Rbt.Library>
libRbt.so (2013.1, Build901 2013/11/27)

>  <Rbt.Parameter_File>
/export/apps/rDock/src/rDock_2013.1_src/data/scripts/dock_solv.prm

>  <Rbt.Receptor>
prm/pocket_docking_7.prm

>  <SCORE>
-23.3691

>  <SCORE.INTER>
-17.6034

>  <SCORE.INTER.CONST>
1

>  <SCORE.INTER.POLAR>
0

>  <SCORE.INTER.ROT>
8

>  <SCORE.INTER.SOLV>
17.6245

>  <SCORE.INTER.VDW>
-26.5438

>  <SCORE.INTER.norm>
-0.677053

>  <SCORE.INTRA>
-5.76576

>  <SCORE.INTRA.DIHEDRAL>
-10.8586

>  <SCORE.INTRA.DIHEDRAL.0>
16.4846

>  <SCORE.INTRA.POLAR>
0

>  <SCORE.INTRA.POLAR.0>
0

>  <SCORE.INTRA.REPUL>
0

>  <SCORE.INTRA.REPUL.0>
0

>  <SCORE.INTRA.SOLV>
3.27891

>  <SCORE.INTRA.SOLV.lig_0>
-82.6983

>  <SCORE.INTRA.VDW>
-1.97593

>  <SCORE.INTRA.VDW.0>
-2.11466

>  <SCORE.INTRA.norm>
-0.22176

>  <SCORE.RESTR>
0

>  <SCORE.RESTR.CAVITY>
0

>  <SCORE.RESTR.norm>
0

>  <SCORE.SYSTEM>
0

>  <SCORE.SYSTEM.CONST>
0

>  <SCORE.SYSTEM.DIHEDRAL>
0

>  <SCORE.SYSTEM.SOLV>
0

>  <SCORE.SYSTEM.norm>
0

>  <SCORE.heavy>
26

>  <SCORE.norm>
-0.898813

>  <RMSD>
3.608

$$$$
ligand
 OpenBabel11021811423D
libRbt.so/2013.1/901 2013/11/27
 26 27  0  0  0  0  0  0  0  0999 V2000
    0.2209  -18.8941  -86.2401 C   0  0  0  0  0  0  0  0  0  0  0  0
    0.7440  -15.1282  -91.8108 C   0  0  0  0  0  0  0  0  0  0  0  0
   -1.9091  -13.4491  -96.8630 P   0  0  2  0  0  0  0  0  0  0  0  0
   -3.3572  -15.3147  -98.3098 P   0  0  2  0  0  0  0  0  0  0  0  0
    2.5723  -17.6513  -91.3187 C   0  0  0  0  0  0  0  0  0  0  0  0
    2.5183  -17.5665  -88.8387 C   0  0  0  0  0  0  0  0  0  0  0  0
    1.9309  -18.0232  -90.0114 C   0  0  0  0  0  0  0  0  0  0  0  0
    0.7449  -18.7588  -89.9297 C   0  0  0  0  0  0  0  0  0  0  0  0
    0.0852  -19.2368  -90.9852 N   0  0  0  0  0  0  0  0  0  0  0  0
    0.2095  -19.0231  -88.6957 N   0  0  0  0  0  0  0  0  0  0  0  0
    0.8210  -18.5770  -87.5580 C   0  0  0  0  0  0  0  0  0  0  0  0
    1.9658  -17.8479  -87.6076 N   0  0  0  0  0  0  0  0  0  0  0  0
   -3.0275  -12.4584  -97.1195 O   0  5  0  0  0  0  0  0  0  0  0  0
   -2.5406  -14.8378  -99.4898 O   0  0  0  0  0  0  0  0  0  0  0  0
    0.3011  -17.9446  -94.5005 S   0  0  0  0  0  0  0  0  0  0  0  0
    1.4188  -18.3746  -93.3950 C   0  0  0  0  0  0  0  0  0  0  0  0
   -0.7742  -13.0692  -97.8104 O   0  0  0  0  0  0  0  0  0  0  0  0
   -4.6964  -14.6104  -98.2313 O   0  5  0  0  0  0  0  0  0  0  0  0
    1.6499  -17.4355  -92.4076 N   0  0  0  0  0  0  0  0  0  0  0  0
   -2.5416  -14.9284  -96.9957 O   0  0  0  0  0  0  0  0  0  0  0  0
   -3.5484  -16.8122  -98.4394 O   0  0  0  0  0  0  0  0  0  0  0  0
    0.8364  -16.3523  -92.6321 C   0  0  1  0  0  0  0  0  0  0  0  0
    0.0435  -16.5457  -93.7743 C   0  0  2  0  0  0  0  0  0  0  0  0
   -1.0155  -15.7399  -94.4854 C   0  0  0  0  0  0  0  0  0  0  0  0
   -0.6047  -14.2691  -94.6124 C   0  0  0  0  0  0  0  0  0  0  0  0
   -1.6524  -13.5376  -95.2370 O   0  0  0  0  0  0  0  0  0  0  0  0
  1 11  1  0  0  0  0
  3 13  1  6  0  0  0
  3 17  2  0  0  0  0
  3 20  1  0  0  0  0
  3 26  1  0  0  0  0
  4 14  1  6  0  0  0
  4 18  1  0  0  0  0
  4 21  2  0  0  0  0
  4 20  1  0  0  0  0
  5 19  1  0  0  0  0
  5  7  1  0  0  0  0
  6  7  2  0  0  0  0
  6 12  1  0  0  0  0
  7  8  1  0  0  0  0
  8  9  1  0  0  0  0
  8 10  2  0  0  0  0
 10 11  1  0  0  0  0
 11 12  2  0  0  0  0
 15 23  1  0  0  0  0
 15 16  1  0  0  0  0
 16 19  1  0  0  0  0
 19 22  1  0  0  0  0
 22  2  1  1  0  0  0
 22 23  1  0  0  0  0
 23 24  1  1  0  0  0
 24 25  1  0  0  0  0
 25 26  1  0  0  0  0
M  CHG  2  13  -1  18  -1
M  END
>  <CHROM.1>
52.77701392,-101.60179864,-145.56276263,46.03788318,-136.29566813,-177.59724592
-82.55549090,-174.07079676,-0.64903828,-16.19126109,-93.95372414,-0.54878239
-1.09779763,-0.18150580

>  <Name>
ligand

>  <RI>
0

>  <Rbt.Current_Directory>
/home/itssahil/PROJECTS/Mol_Feturizer/New_Systems/rnas/2CKY

>  <Rbt.Executable>
rbdock ($Id: //depot/dev/client3/rdock/2013.1/src/exe/rbdock.cxx#4 $)

>  <Rbt.Library>
libRbt.so (2013.1, Build901 2013/11/27)

>  <Rbt.Parameter_File>
/export/apps/rDock/src/rDock_2013.1_src/data/scripts/dock_solv.prm

>  <Rbt.Receptor>
prm/pocket_docking_6.prm

>  <SCORE>
-19.9002

>  <SCORE.INTER>
-15.8235

>  <SCORE.INTER.CONST>
1

>  <SCORE.INTER.POLAR>
0

>  <SCORE.INTER.ROT>
8

>  <SCORE.INTER.SOLV>
17.5755

>  <SCORE.INTER.VDW>
-25.3409

>  <SCORE.INTER.norm>
-0.608597

>  <SCORE.INTRA>
-4.07673

>  <SCORE.INTRA.DIHEDRAL>
-8.83201

>  <SCORE.INTRA.DIHEDRAL.0>
16.4846

>  <SCORE.INTRA.POLAR>
0

>  <SCORE.INTRA.POLAR.0>
0

>  <SCORE.INTRA.REPUL>
0

>  <SCORE.INTRA.REPUL.0>
0

>  <SCORE.INTRA.SOLV>
3.60333

>  <SCORE.INTRA.SOLV.lig_0>
-82.6983

>  <SCORE.INTRA.VDW>
-1.46239

>  <SCORE.INTRA.VDW.0>
-2.11466

>  <SCORE.INTRA.norm>
-0.156797

>  <SCORE.RESTR>
0

>  <SCORE.RESTR.CAVITY>
0

>  <SCORE.RESTR.norm>
0

>  <SCORE.SYSTEM>
0

>  <SCORE.SYSTEM.CONST>
0

>  <SCORE.SYSTEM.DIHEDRAL>
0

>  <SCORE.SYSTEM.SOLV>
0

>  <SCORE.SYSTEM.norm>
0

>  <SCORE.heavy>
26

>  <SCORE.norm>
-0.765394

>  <RMSD>
3.617

$$$$
ligand
 OpenBabel11021811423D
libRbt.so/2013.1/901 2013/11/27
 26 27  0  0  0  0  0  0  0  0999 V2000
    1.7105  -18.2208  -87.7539 C   0  0  0  0  0  0  0  0  0  0  0  0
    0.7450  -16.2834  -95.6628 C   0  0  0  0  0  0  0  0  0  0  0  0
   -1.9340  -16.6750  -99.3981 P   0  0  2  0  0  0  0  0  0  0  0  0
   -2.9641  -14.2397  -98.5743 P   0  0  2  0  0  0  0  0  0  0  0  0
   -0.5097  -16.6057  -92.7865 C   0  0  0  0  0  0  0  0  0  0  0  0
   -0.6513  -17.7285  -90.5775 C   0  0  0  0  0  0  0  0  0  0  0  0
    0.1093  -16.9849  -91.4706 C   0  0  0  0  0  0  0  0  0  0  0  0
    1.4287  -16.6693  -91.1331 C   0  0  0  0  0  0  0  0  0  0  0  0
    2.2562  -15.9739  -91.9138 N   0  0  0  0  0  0  0  0  0  0  0  0
    1.9244  -17.0857  -89.9247 N   0  0  0  0  0  0  0  0  0  0  0  0
    1.1454  -17.7994  -89.0580 C   0  0  0  0  0  0  0  0  0  0  0  0
   -0.1348  -18.1330  -89.3652 N   0  0  0  0  0  0  0  0  0  0  0  0
   -1.2981  -16.7099 -100.7738 O   0  5  0  0  0  0  0  0  0  0  0  0
   -3.6007  -14.0186  -99.9280 O   0  0  0  0  0  0  0  0  0  0  0  0
   -0.7311  -19.8491  -94.9772 S   0  0  0  0  0  0  0  0  0  0  0  0
   -0.9097  -18.8909  -93.6711 C   0  0  0  0  0  0  0  0  0  0  0  0
   -3.3700  -17.1607  -99.5773 O   0  0  0  0  0  0  0  0  0  0  0  0
   -2.4468  -12.9464  -97.9783 O   0  5  0  0  0  0  0  0  0  0  0  0
   -0.4085  -17.6112  -93.8170 N   0  0  0  0  0  0  0  0  0  0  0  0
   -1.7061  -15.1915  -98.8039 O   0  0  0  0  0  0  0  0  0  0  0  0
   -3.9957  -14.8726  -97.6626 O   0  0  0  0  0  0  0  0  0  0  0  0
    0.1207  -17.4875  -95.0780 C   0  0  1  0  0  0  0  0  0  0  0  0
   -0.0171  -18.6824  -95.8017 C   0  0  2  0  0  0  0  0  0  0  0  0
    0.3456  -19.1321  -97.1956 C   0  0  0  0  0  0  0  0  0  0  0  0
   -0.7819  -18.8313  -98.1889 C   0  0  0  0  0  0  0  0  0  0  0  0
   -0.9203  -17.4233  -98.3351 O   0  0  0  0  0  0  0  0  0  0  0  0
  1 11  1  0  0  0  0
  3 13  1  6  0  0  0
  3 17  2  0  0  0  0
  3 20  1  0  0  0  0
  3 26  1  0  0  0  0
  4 14  1  6  0  0  0
  4 18  1  0  0  0  0
  4 21  2  0  0  0  0
  4 20  1  0  0  0  0
  5 19  1  0  0  0  0
  5  7  1  0  0  0  0
  6  7  2  0  0  0  0
  6 12  1  0  0  0  0
  7  8  1  0  0  0  0
  8  9  1  0  0  0  0
  8 10  2  0  0  0  0
 10 11  1  0  0  0  0
 11 12  2  0  0  0  0
 15 23  1  0  0  0  0
 15 16  1  0  0  0  0
 16 19  1  0  0  0  0
 19 22  1  0  0  0  0
 22  2  1  6  0  0  0
 22 23  1  0  0  0  0
 23 24  1  6  0  0  0
 24 25  1  0  0  0  0
 25 26  1  0  0  0  0
M  CHG  2  13  -1  18  -1
M  END
>  <CHROM.1>
113.37970774,57.80532254,-84.67649365,-61.57019339,91.04821045,66.92549683
174.82995786,-78.65470745,-0.86843622,-16.89678037,-95.50713819,0.55239416
-1.15374992,0.82695015

>  <Name>
ligand

>  <RI>
0

>  <Rbt.Current_Directory>
/home/itssahil/PROJECTS/Mol_Feturizer/New_Systems/rnas/2CKY

>  <Rbt.Executable>
rbdock ($Id: //depot/dev/client3/rdock/2013.1/src/exe/rbdock.cxx#4 $)

>  <Rbt.Library>
libRbt.so (2013.1, Build901 2013/11/27)

>  <Rbt.Parameter_File>
/export/apps/rDock/src/rDock_2013.1_src/data/scripts/dock_solv.prm

>  <Rbt.Receptor>
prm/pocket_docking_4.prm

>  <SCORE>
-18.5815

>  <SCORE.INTER>
-12.4978

>  <SCORE.INTER.CONST>
1

>  <SCORE.INTER.POLAR>
0

>  <SCORE.INTER.ROT>
8

>  <SCORE.INTER.SOLV>
14.4032

>  <SCORE.INTER.VDW>
-22.0663

>  <SCORE.INTER.norm>
-0.480685

>  <SCORE.INTRA>
-6.08372

>  <SCORE.INTRA.DIHEDRAL>
-8.90299

>  <SCORE.INTRA.DIHEDRAL.0>
16.4846

>  <SCORE.INTRA.POLAR>
0

>  <SCORE.INTRA.POLAR.0>
0

>  <SCORE.INTRA.REPUL>
0

>  <SCORE.INTRA.REPUL.0>
0

>  <SCORE.INTRA.SOLV>
0.711921

>  <SCORE.INTRA.SOLV.lig_0>
-82.6983

>  <SCORE.INTRA.VDW>
-1.98819

>  <SCORE.INTRA.VDW.0>
-2.11466

>  <SCORE.INTRA.norm>
-0.233989

>  <SCORE.RESTR>
0

>  <SCORE.RESTR.CAVITY>
0

>  <SCORE.RESTR.norm>
0

>  <SCORE.SYSTEM>
0

>  <SCORE.SYSTEM.CONST>
0

>  <SCORE.SYSTEM.DIHEDRAL>
0

>  <SCORE.SYSTEM.SOLV>
0

>  <SCORE.SYSTEM.norm>
0

>  <SCORE.heavy>
26

>  <SCORE.norm>
-0.714674

>  <RMSD>
3.663

$$$$
ligand
 OpenBabel11021811423D
libRbt.so/2013.1/901 2013/11/27
 26 27  0  0  0  0  0  0  0  0999 V2000
    0.4890  -18.9674  -86.3831 C   0  0  0  0  0  0  0  0  0  0  0  0
    2.3466  -17.5296  -94.8012 C   0  0  0  0  0  0  0  0  0  0  0  0
   -1.8492  -16.4013  -97.7530 P   0  0  2  0  0  0  0  0  0  0  0  0
   -1.7166  -15.2904  -95.2195 P   0  0  2  0  0  0  0  0  0  0  0  0
    1.4463  -17.3070  -91.7860 C   0  0  0  0  0  0  0  0  0  0  0  0
    2.2081  -18.0707  -89.5507 C   0  0  0  0  0  0  0  0  0  0  0  0
    1.1426  -17.7596  -90.3854 C   0  0  0  0  0  0  0  0  0  0  0  0
   -0.1568  -17.8274  -89.8744 C   0  0  0  0  0  0  0  0  0  0  0  0
   -1.2539  -17.5401  -90.5755 N   0  0  0  0  0  0  0  0  0  0  0  0
   -0.3406  -18.2172  -88.5729 N   0  0  0  0  0  0  0  0  0  0  0  0
    0.7266  -18.5362  -87.7813 C   0  0  0  0  0  0  0  0  0  0  0  0
    2.0007  -18.4654  -88.2464 N   0  0  0  0  0  0  0  0  0  0  0  0
   -1.1529  -16.2157  -99.0867 O   0  5  0  0  0  0  0  0  0  0  0  0
   -1.8039  -16.6959  -94.6685 O   0  0  0  0  0  0  0  0  0  0  0  0
   -0.8349  -19.6529  -93.9450 S   0  0  0  0  0  0  0  0  0  0  0  0
   -0.2894  -18.8734  -92.6217 C   0  0  0  0  0  0  0  0  0  0  0  0
   -3.3403  -16.2109  -98.0179 O   0  0  0  0  0  0  0  0  0  0  0  0
   -3.0816  -14.6411  -95.3226 O   0  5  0  0  0  0  0  0  0  0  0  0
    0.8398  -18.1031  -92.8260 N   0  0  0  0  0  0  0  0  0  0  0  0
   -1.1355  -15.4083  -96.6992 O   0  0  0  0  0  0  0  0  0  0  0  0
   -0.8079  -14.4821  -94.3157 O   0  0  0  0  0  0  0  0  0  0  0  0
    1.2073  -18.2031  -94.1453 C   0  0  1  0  0  0  0  0  0  0  0  0
    0.3302  -19.0419  -94.8506 C   0  0  2  0  0  0  0  0  0  0  0  0
    0.2181  -19.5043  -96.2824 C   0  0  0  0  0  0  0  0  0  0  0  0
    0.0177  -18.3213  -97.2356 C   0  0  0  0  0  0  0  0  0  0  0  0
   -1.2892  -17.7883  -97.0599 O   0  0  0  0  0  0  0  0  0  0  0  0
  1 11  1  0  0  0  0
  3 13  1  6  0  0  0
  3 17  2  0  0  0  0
  3 20  1  0  0  0  0
  3 26  1  0  0  0  0
  4 14  1  1  0  0  0
  4 18  1  0  0  0  0
  4 21  2  0  0  0  0
  4 20  1  0  0  0  0
  5 19  1  0  0  0  0
  5  7  1  0  0  0  0
  6  7  2  0  0  0  0
  6 12  1  0  0  0  0
  7  8  1  0  0  0  0
  8  9  1  0  0  0  0
  8 10  2  0  0  0  0
 10 11  1  0  0  0  0
 11 12  2  0  0  0  0
 15 23  1  0  0  0  0
 15 16  1  0  0  0  0
 16 19  1  0  0  0  0
 19 22  1  0  0  0  0
 22  2  1  6  0  0  0
 22 23  1  0  0  0  0
 23 24  1  6  0  0  0
 24 25  1  0  0  0  0
 25 26  1  0  0  0  0
M  CHG  2  13  -1  18  -1
M  END
>  <CHROM.1>
175.50568555,23.21788517,122.80510133,52.99582434,118.93867098,-71.09740957
172.15408999,30.66706088,-0.46199574,-17.38393142,-93.81862665,1.08997727
-0.93542175,1.41147824

>  <Name>
ligand

>  <RI>
0

>  <Rbt.Current_Directory>
/home/itssahil/PROJECTS/Mol_Feturizer/New_Systems/rnas/2CKY

>  <Rbt.Executable>
rbdock ($Id: //depot/dev/client3/rdock/2013.1/src/exe/rbdock.cxx#4 $)

>  <Rbt.Library>
libRbt.so (2013.1, Build901 2013/11/27)

>  <Rbt.Parameter_File>
/export/apps/rDock/src/rDock_2013.1_src/data/scripts/dock_solv.prm

>  <Rbt.Receptor>
prm/pocket_docking_5.prm

>  <SCORE>
-22.1041

>  <SCORE.INTER>
-15.1998

>  <SCORE.INTER.CONST>
1

>  <SCORE.INTER.POLAR>
0

>  <SCORE.INTER.ROT>
8

>  <SCORE.INTER.SOLV>
20.5025

>  <SCORE.INTER.VDW>
-25.9007

>  <SCORE.INTER.norm>
-0.584607

>  <SCORE.INTRA>
-6.90431

>  <SCORE.INTRA.DIHEDRAL>
-10.1484

>  <SCORE.INTRA.DIHEDRAL.0>
16.4846

>  <SCORE.INTRA.POLAR>
0

>  <SCORE.INTRA.POLAR.0>
0

>  <SCORE.INTRA.REPUL>
0.00757616

>  <SCORE.INTRA.REPUL.0>
0

>  <SCORE.INTRA.SOLV>
1.13291

>  <SCORE.INTRA.SOLV.lig_0>
-82.6983

>  <SCORE.INTRA.VDW>
-2.43447

>  <SCORE.INTRA.VDW.0>
-2.11466

>  <SCORE.INTRA.norm>
-0.26555

>  <SCORE.RESTR>
0

>  <SCORE.RESTR.CAVITY>
0

>  <SCORE.RESTR.norm>
0

>  <SCORE.SYSTEM>
0

>  <SCORE.SYSTEM.CONST>
0

>  <SCORE.SYSTEM.DIHEDRAL>
0

>  <SCORE.SYSTEM.SOLV>
0

>  <SCORE.SYSTEM.norm>
0

>  <SCORE.heavy>
26

>  <SCORE.norm>
-0.850157

>  <RMSD>
3.705

$$$$
ligand
 OpenBabel11021811423D
libRbt.so/2013.1/901 2013/11/27
 26 27  0  0  0  0  0  0  0  0999 V2000
    0.3394  -18.8615  -88.9581 C   0  0  0  0  0  0  0  0  0  0  0  0
    1.9420  -16.9940  -97.3724 C   0  0  0  0  0  0  0  0  0  0  0  0
    2.7471  -13.1390  -99.8028 P   0  0  2  0  0  0  0  0  0  0  0  0
    3.9366  -10.7139 -100.4148 P   0  0  2  0  0  0  0  0  0  0  0  0
    1.3715  -18.3299  -94.5721 C   0  0  0  0  0  0  0  0  0  0  0  0
    1.0520  -19.6753  -92.5110 C   0  0  0  0  0  0  0  0  0  0  0  0
    1.0735  -18.4185  -93.1017 C   0  0  0  0  0  0  0  0  0  0  0  0
    0.8725  -17.2921  -92.2985 C   0  0  0  0  0  0  0  0  0  0  0  0
    0.8841  -16.0377  -92.7502 N   0  0  0  0  0  0  0  0  0  0  0  0
    0.6413  -17.4633  -90.9581 N   0  0  0  0  0  0  0  0  0  0  0  0
    0.6064  -18.7139  -90.4087 C   0  0  0  0  0  0  0  0  0  0  0  0
    0.8126  -19.8252  -91.1618 N   0  0  0  0  0  0  0  0  0  0  0  0
    2.8784  -13.5925 -101.2434 O   0  5  0  0  0  0  0  0  0  0  0  0
    4.8622  -10.9773 -101.5812 O   0  0  0  0  0  0  0  0  0  0  0  0
    4.6197  -16.1360  -94.6416 S   0  0  0  0  0  0  0  0  0  0  0  0
    3.4588  -17.1007  -94.0269 C   0  0  0  0  0  0  0  0  0  0  0  0
    1.2959  -12.7018  -99.6217 O   0  0  0  0  0  0  0  0  0  0  0  0
    4.4554   -9.6026  -99.5251 O   0  5  0  0  0  0  0  0  0  0  0  0
    2.4621  -17.4501  -94.9184 N   0  0  0  0  0  0  0  0  0  0  0  0
    3.9048  -12.0454  -99.5389 O   0  0  0  0  0  0  0  0  0  0  0  0
    2.5688  -10.3632 -100.9643 O   0  0  0  0  0  0  0  0  0  0  0  0
    2.7354  -16.8701  -96.1326 C   0  0  1  0  0  0  0  0  0  0  0  0
    3.9217  -16.1216  -96.0780 C   0  0  2  0  0  0  0  0  0  0  0  0
    4.7112  -15.3019  -97.0686 C   0  0  0  0  0  0  0  0  0  0  0  0
    3.9234  -14.0692  -97.5247 C   0  0  0  0  0  0  0  0  0  0  0  0
    3.4040  -14.2957  -98.8292 O   0  0  0  0  0  0  0  0  0  0  0  0
  1 11  1  0  0  0  0
  3 13  1  6  0  0  0
  3 17  2  0  0  0  0
  3 20  1  0  0  0  0
  3 26  1  0  0  0  0
  4 14  1  6  0  0  0
  4 18  1  0  0  0  0
  4 21  2  0  0  0  0
  4 20  1  0  0  0  0
  5 19  1  0  0  0  0
  5  7  1  0  0  0  0
  6  7  2  0  0  0  0
  6 12  1  0  0  0  0
  7  8  1  0  0  0  0
  8  9  1  0  0  0  0
  8 10  2  0  0  0  0
 10 11  1  0  0  0  0
 11 12  2  0  0  0  0
 15 23  1  0  0  0  0
 15 16  1  0  0  0  0
 16 19  1  0  0  0  0
 19 22  1  0  0  0  0
 22  2  1  6  0  0  0
 22 23  1  0  0  0  0
 23 24  1  6  0  0  0
 24 25  1  0  0  0  0
 25 26  1  0  0  0  0
M  CHG  2  13  -1  18  -1
M  END
>  <CHROM.1>
59.77418357,22.73947717,-125.70082997,-93.60169938,-115.00449623,-103.40056886
-167.75665442,155.40006237,2.71533630,-15.02549890,-96.48387176,1.78559682
-0.16008499,2.27906852

>  <Name>
ligand

>  <RI>
0

>  <Rbt.Current_Directory>
/home/itssahil/PROJECTS/Mol_Feturizer/New_Systems/rnas/2CKY

>  <Rbt.Executable>
rbdock ($Id: //depot/dev/client3/rdock/2013.1/src/exe/rbdock.cxx#4 $)

>  <Rbt.Library>
libRbt.so (2013.1, Build901 2013/11/27)

>  <Rbt.Parameter_File>
/export/apps/rDock/src/rDock_2013.1_src/data/scripts/dock_solv.prm

>  <Rbt.Receptor>
prm/pocket_docking_5.prm

>  <SCORE>
-17.5164

>  <SCORE.INTER>
-15.0932

>  <SCORE.INTER.CONST>
1

>  <SCORE.INTER.POLAR>
0

>  <SCORE.INTER.ROT>
8

>  <SCORE.INTER.SOLV>
17.9063

>  <SCORE.INTER.VDW>
-24.9642

>  <SCORE.INTER.norm>
-0.580507

>  <SCORE.INTRA>
-2.42325

>  <SCORE.INTRA.DIHEDRAL>
-4.54794

>  <SCORE.INTRA.DIHEDRAL.0>
16.4846

>  <SCORE.INTRA.POLAR>
0

>  <SCORE.INTRA.POLAR.0>
0

>  <SCORE.INTRA.REPUL>
0

>  <SCORE.INTRA.REPUL.0>
0

>  <SCORE.INTRA.SOLV>
2.23147

>  <SCORE.INTRA.SOLV.lig_0>
-82.6983

>  <SCORE.INTRA.VDW>
-1.26501

>  <SCORE.INTRA.VDW.0>
-2.11466

>  <SCORE.INTRA.norm>
-0.0932018

>  <SCORE.RESTR>
0

>  <SCORE.RESTR.CAVITY>
0

>  <SCORE.RESTR.norm>
0

>  <SCORE.SYSTEM>
0

>  <SCORE.SYSTEM.CONST>
0

>  <SCORE.SYSTEM.DIHEDRAL>
0

>  <SCORE.SYSTEM.SOLV>
0

>  <SCORE.SYSTEM.norm>
0

>  <SCORE.heavy>
26

>  <SCORE.norm>
-0.673709

>  <RMSD>
3.753

$$$$
ligand
 OpenBabel11021811423D
libRbt.so/2013.1/901 2013/11/27
 26 27  0  0  0  0  0  0  0  0999 V2000
    2.7967  -17.7275  -87.9838 C   0  0  0  0  0  0  0  0  0  0  0  0
   -0.2292  -15.7691  -94.7510 C   0  0  0  0  0  0  0  0  0  0  0  0
   -2.9775  -16.1480  -98.4976 P   0  0  2  0  0  0  0  0  0  0  0  0
   -2.6892  -13.6674  -97.3002 P   0  0  2  0  0  0  0  0  0  0  0  0
   -1.1521  -17.2255  -92.1094 C   0  0  0  0  0  0  0  0  0  0  0  0
   -0.3755  -18.0260  -89.8920 C   0  0  0  0  0  0  0  0  0  0  0  0
   -0.0922  -17.3086  -91.0471 C   0  0  0  0  0  0  0  0  0  0  0  0
    1.1779  -16.7438  -91.1958 C   0  0  0  0  0  0  0  0  0  0  0  0
    1.5678  -16.0467  -92.2635 N   0  0  0  0  0  0  0  0  0  0  0  0
    2.0968  -16.8982  -90.1903 N   0  0  0  0  0  0  0  0  0  0  0  0
    1.7824  -17.5930  -89.0565 C   0  0  0  0  0  0  0  0  0  0  0  0
    0.5617  -18.1649  -88.8908 N   0  0  0  0  0  0  0  0  0  0  0  0
   -2.4478  -15.3609  -99.6799 O   0  5  0  0  0  0  0  0  0  0  0  0
   -3.3227  -12.7851  -98.3522 O   0  0  0  0  0  0  0  0  0  0  0  0
   -0.4640  -19.6661  -95.0991 S   0  0  0  0  0  0  0  0  0  0  0  0
   -0.8608  -19.1978  -93.5894 C   0  0  0  0  0  0  0  0  0  0  0  0
   -4.0417  -17.0911  -99.0526 O   0  0  0  0  0  0  0  0  0  0  0  0
   -1.2205  -13.9116  -97.5812 O   0  5  0  0  0  0  0  0  0  0  0  0
   -0.7979  -17.8348  -93.3690 N   0  0  0  0  0  0  0  0  0  0  0  0
   -3.4262  -15.0789  -97.3744 O   0  0  0  0  0  0  0  0  0  0  0  0
   -2.8711  -13.0024  -95.9510 O   0  0  0  0  0  0  0  0  0  0  0  0
   -0.4076  -17.2190  -94.5326 C   0  0  1  0  0  0  0  0  0  0  0  0
   -0.2025  -18.1581  -95.5555 C   0  0  2  0  0  0  0  0  0  0  0  0
    0.2033  -18.0818  -97.0067 C   0  0  0  0  0  0  0  0  0  0  0  0
   -1.0199  -17.9577  -97.9213 C   0  0  0  0  0  0  0  0  0  0  0  0
   -1.6951  -16.7367  -97.6452 O   0  0  0  0  0  0  0  0  0  0  0  0
  1 11  1  0  0  0  0
  3 13  1  6  0  0  0
  3 17  2  0  0  0  0
  3 20  1  0  0  0  0
  3 26  1  0  0  0  0
  4 14  1  6  0  0  0
  4 18  1  0  0  0  0
  4 21  2  0  0  0  0
  4 20  1  0  0  0  0
  5 19  1  0  0  0  0
  5  7  1  0  0  0  0
  6  7  2  0  0  0  0
  6 12  1  0  0  0  0
  7  8  1  0  0  0  0
  8  9  1  0  0  0  0
  8 10  2  0  0  0  0
 10 11  1  0  0  0  0
 11 12  2  0  0  0  0
 15 23  1  0  0  0  0
 15 16  1  0  0  0  0
 16 19  1  0  0  0  0
 19 22  1  0  0  0  0
 22  2  1  6  0  0  0
 22 23  1  0  0  0  0
 23 24  1  6  0  0  0
 24 25  1  0  0  0  0
 25 26  1  0  0  0  0
M  CHG  2  13  -1  18  -1
M  END
>  <CHROM.1>
-28.71591083,79.51425073,-116.68527910,81.47207518,88.88236772,63.51171844
174.03629753,-86.01848534,-1.01254531,-16.55955311,-94.94353048,0.15089914
-1.13560396,0.48069641

>  <Name>
ligand

>  <RI>
0

>  <Rbt.Current_Directory>
/home/itssahil/PROJECTS/Mol_Feturizer/New_Systems/rnas/2CKY

>  <Rbt.Executable>
rbdock ($Id: //depot/dev/client3/rdock/2013.1/src/exe/rbdock.cxx#4 $)

>  <Rbt.Library>
libRbt.so (2013.1, Build901 2013/11/27)

>  <Rbt.Parameter_File>
/export/apps/rDock/src/rDock_2013.1_src/data/scripts/dock_solv.prm

>  <Rbt.Receptor>
prm/pocket_docking_4.prm

>  <SCORE>
-19.14

>  <SCORE.INTER>
-14.992

>  <SCORE.INTER.CONST>
1

>  <SCORE.INTER.POLAR>
0

>  <SCORE.INTER.ROT>
8

>  <SCORE.INTER.SOLV>
12.3811

>  <SCORE.INTER.VDW>
-23.055

>  <SCORE.INTER.norm>
-0.576614

>  <SCORE.INTRA>
-4.16727

>  <SCORE.INTRA.DIHEDRAL>
-8.88789

>  <SCORE.INTRA.DIHEDRAL.0>
16.4846

>  <SCORE.INTRA.POLAR>
0

>  <SCORE.INTRA.POLAR.0>
0

>  <SCORE.INTRA.REPUL>
0

>  <SCORE.INTRA.REPUL.0>
0

>  <SCORE.INTRA.SOLV>
5.27983

>  <SCORE.INTRA.SOLV.lig_0>
-82.6983

>  <SCORE.INTRA.VDW>
-2.36324

>  <SCORE.INTRA.VDW.0>
-2.11466

>  <SCORE.INTRA.norm>
-0.16028

>  <SCORE.RESTR>
0.0191944

>  <SCORE.RESTR.CAVITY>
0.0191944

>  <SCORE.RESTR.norm>
0.000738246

>  <SCORE.SYSTEM>
0

>  <SCORE.SYSTEM.CONST>
0

>  <SCORE.SYSTEM.DIHEDRAL>
0

>  <SCORE.SYSTEM.SOLV>
0

>  <SCORE.SYSTEM.norm>
0

>  <SCORE.heavy>
26

>  <SCORE.norm>
-0.736155

>  <RMSD>
3.785

$$$$
ligand
 OpenBabel11021811423D
libRbt.so/2013.1/901 2013/11/27
 26 27  0  0  0  0  0  0  0  0999 V2000
    0.0850  -18.9179  -85.9012 C   0  0  0  0  0  0  0  0  0  0  0  0
    0.2842  -15.9285  -92.0272 C   0  0  0  0  0  0  0  0  0  0  0  0
   -0.4343  -13.5126  -95.2342 P   0  0  2  0  0  0  0  0  0  0  0  0
   -2.4188  -12.2588  -96.7039 P   0  0  2  0  0  0  0  0  0  0  0  0
    2.6900  -17.5808  -90.8299 C   0  0  0  0  0  0  0  0  0  0  0  0
    2.5459  -17.6025  -88.3521 C   0  0  0  0  0  0  0  0  0  0  0  0
    1.9806  -17.9750  -89.5649 C   0  0  0  0  0  0  0  0  0  0  0  0
    0.7557  -18.6486  -89.5595 C   0  0  0  0  0  0  0  0  0  0  0  0
    0.1127  -19.0435  -90.6588 N   0  0  0  0  0  0  0  0  0  0  0  0
    0.1605  -18.9379  -88.3589 N   0  0  0  0  0  0  0  0  0  0  0  0
    0.7506  -18.5758  -87.1808 C   0  0  0  0  0  0  0  0  0  0  0  0
    1.9329  -17.9079  -87.1558 N   0  0  0  0  0  0  0  0  0  0  0  0
   -0.7289  -12.6023  -94.0584 O   0  5  0  0  0  0  0  0  0  0  0  0
   -1.3005  -11.4961  -97.3780 O   0  0  0  0  0  0  0  0  0  0  0  0
    1.2390  -19.0842  -94.1470 S   0  0  0  0  0  0  0  0  0  0  0  0
    2.2160  -18.9444  -92.8500 C   0  0  0  0  0  0  0  0  0  0  0  0
    0.8253  -12.9618  -95.8976 O   0  0  0  0  0  0  0  0  0  0  0  0
   -2.9978  -11.4902  -95.5336 O   0  5  0  0  0  0  0  0  0  0  0  0
    1.9590  -17.8508  -92.0449 N   0  0  0  0  0  0  0  0  0  0  0  0
   -1.7804  -13.5981  -96.1211 O   0  0  0  0  0  0  0  0  0  0  0  0
   -3.4894  -12.5434  -97.7377 O   0  0  0  0  0  0  0  0  0  0  0  0
    0.9020  -17.1531  -92.5753 C   0  0  1  0  0  0  0  0  0  0  0  0
    0.4297  -17.7670  -93.7460 C   0  0  2  0  0  0  0  0  0  0  0  0
   -0.6815  -17.4807  -94.7257 C   0  0  0  0  0  0  0  0  0  0  0  0
   -0.3881  -16.2215  -95.5483 C   0  0  0  0  0  0  0  0  0  0  0  0
   -0.4947  -15.0753  -94.7129 O   0  0  0  0  0  0  0  0  0  0  0  0
  1 11  1  0  0  0  0
  3 13  1  1  0  0  0
  3 17  2  0  0  0  0
  3 20  1  0  0  0  0
  3 26  1  0  0  0  0
  4 14  1  6  0  0  0
  4 18  1  0  0  0  0
  4 21  2  0  0  0  0
  4 20  1  0  0  0  0
  5 19  1  0  0  0  0
  5  7  1  0  0  0  0
  6  7  2  0  0  0  0
  6 12  1  0  0  0  0
  7  8  1  0  0  0  0
  8  9  1  0  0  0  0
  8 10  2  0  0  0  0
 10 11  1  0  0  0  0
 11 12  2  0  0  0  0
 15 23  1  0  0  0  0
 15 16  1  0  0  0  0
 16 19  1  0  0  0  0
 19 22  1  0  0  0  0
 22  2  1  1  0  0  0
 22 23  1  0  0  0  0
 23 24  1  1  0  0  0
 24 25  1  0  0  0  0
 25 26  1  0  0  0  0
M  CHG  2  13  -1  18  -1
M  END
>  <CHROM.1>
57.78040276,-100.73303082,-172.39971402,49.55810379,-111.14540533,-70.43582431
-172.30946083,174.19490861,-0.01535401,-15.88443640,-93.13531336,0.83295375
-1.09961198,1.56581211

>  <Name>
ligand

>  <RI>
0

>  <Rbt.Current_Directory>
/home/itssahil/PROJECTS/Mol_Feturizer/New_Systems/rnas/2CKY

>  <Rbt.Executable>
rbdock ($Id: //depot/dev/client3/rdock/2013.1/src/exe/rbdock.cxx#4 $)

>  <Rbt.Library>
libRbt.so (2013.1, Build901 2013/11/27)

>  <Rbt.Parameter_File>
/export/apps/rDock/src/rDock_2013.1_src/data/scripts/dock_solv.prm

>  <Rbt.Receptor>
prm/pocket_docking_5.prm

>  <SCORE>
-22.7395

>  <SCORE.INTER>
-18.4778

>  <SCORE.INTER.CONST>
1

>  <SCORE.INTER.POLAR>
0

>  <SCORE.INTER.ROT>
8

>  <SCORE.INTER.SOLV>
18.259

>  <SCORE.INTER.VDW>
-27.3382

>  <SCORE.INTER.norm>
-0.710685

>  <SCORE.INTRA>
-4.26172

>  <SCORE.INTRA.DIHEDRAL>
-10.9257

>  <SCORE.INTRA.DIHEDRAL.0>
16.4846

>  <SCORE.INTRA.POLAR>
0

>  <SCORE.INTRA.POLAR.0>
0

>  <SCORE.INTRA.REPUL>
0

>  <SCORE.INTRA.REPUL.0>
0

>  <SCORE.INTRA.SOLV>
5.50914

>  <SCORE.INTRA.SOLV.lig_0>
-82.6983

>  <SCORE.INTRA.VDW>
-1.55344

>  <SCORE.INTRA.VDW.0>
-2.11466

>  <SCORE.INTRA.norm>
-0.163912

>  <SCORE.RESTR>
0

>  <SCORE.RESTR.CAVITY>
0

>  <SCORE.RESTR.norm>
0

>  <SCORE.SYSTEM>
0

>  <SCORE.SYSTEM.CONST>
0

>  <SCORE.SYSTEM.DIHEDRAL>
0

>  <SCORE.SYSTEM.SOLV>
0

>  <SCORE.SYSTEM.norm>
0

>  <SCORE.heavy>
26

>  <SCORE.norm>
-0.874597

>  <RMSD>
3.816

$$$$
ligand
 OpenBabel11021811423D
libRbt.so/2013.1/901 2013/11/27
 26 27  0  0  0  0  0  0  0  0999 V2000
    0.4371  -19.3620  -86.6862 C   0  0  0  0  0  0  0  0  0  0  0  0
    4.6705  -15.3946  -93.3171 C   0  0  0  0  0  0  0  0  0  0  0  0
    2.7472  -13.2783  -96.2292 P   0  0  2  0  0  0  0  0  0  0  0  0
    1.3227  -13.1075  -93.8602 P   0  0  2  0  0  0  0  0  0  0  0  0
    3.2126  -16.3257  -90.6791 C   0  0  0  0  0  0  0  0  0  0  0  0
    1.1755  -17.3968  -89.7499 C   0  0  0  0  0  0  0  0  0  0  0  0
    2.5243  -17.1046  -89.5936 C   0  0  0  0  0  0  0  0  0  0  0  0
    3.1937  -17.5910  -88.4669 C   0  0  0  0  0  0  0  0  0  0  0  0
    4.4873  -17.3862  -88.2171 N   0  0  0  0  0  0  0  0  0  0  0  0
    2.4951  -18.3236  -87.5424 N   0  0  0  0  0  0  0  0  0  0  0  0
    1.1636  -18.5784  -87.7137 C   0  0  0  0  0  0  0  0  0  0  0  0
    0.4907  -18.1311  -88.8055 N   0  0  0  0  0  0  0  0  0  0  0  0
    3.9277  -12.5677  -96.8612 O   0  5  0  0  0  0  0  0  0  0  0  0
    1.3109  -14.6137  -93.7268 O   0  0  0  0  0  0  0  0  0  0  0  0
    2.0889  -18.2896  -93.8805 S   0  0  0  0  0  0  0  0  0  0  0  0
    2.1516  -17.8721  -92.3064 C   0  0  0  0  0  0  0  0  0  0  0  0
    1.5662  -13.0707  -97.1737 O   0  0  0  0  0  0  0  0  0  0  0  0
    0.1132  -12.6007  -94.6191 O   0  5  0  0  0  0  0  0  0  0  0  0
    3.0453  -16.8605  -92.0093 N   0  0  0  0  0  0  0  0  0  0  0  0
    2.6121  -12.7285  -94.7174 O   0  0  0  0  0  0  0  0  0  0  0  0
    1.3697  -12.5083  -92.4693 O   0  0  0  0  0  0  0  0  0  0  0  0
    3.6590  -16.4610  -93.1708 C   0  0  1  0  0  0  0  0  0  0  0  0
    3.1871  -17.1970  -94.2690 C   0  0  2  0  0  0  0  0  0  0  0  0
    3.4669  -17.1969  -95.7516 C   0  0  0  0  0  0  0  0  0  0  0  0
    2.8103  -15.9967  -96.4422 C   0  0  0  0  0  0  0  0  0  0  0  0
    3.2215  -14.7972  -95.7981 O   0  0  0  0  0  0  0  0  0  0  0  0
  1 11  1  0  0  0  0
  3 13  1  6  0  0  0
  3 17  2  0  0  0  0
  3 20  1  0  0  0  0
  3 26  1  0  0  0  0
  4 14  1  1  0  0  0
  4 18  1  0  0  0  0
  4 21  2  0  0  0  0
  4 20  1  0  0  0  0
  5 19  1  0  0  0  0
  5  7  1  0  0  0  0
  6  7  2  0  0  0  0
  6 12  1  0  0  0  0
  7  8  1  0  0  0  0
  8  9  1  0  0  0  0
  8 10  2  0  0  0  0
 10 11  1  0  0  0  0
 11 12  2  0  0  0  0
 15 23  1  0  0  0  0
 15 16  1  0  0  0  0
 16 19  1  0  0  0  0
 19 22  1  0  0  0  0
 22  2  1  6  0  0  0
 22 23  1  0  0  0  0
 23 24  1  6  0  0  0
 24 25  1  0  0  0  0
 25 26  1  0  0  0  0
M  CHG  2  13  -1  18  -1
M  END
>  <CHROM.1>
170.23924549,10.24222047,-51.94932130,61.46078570,104.53258444,54.33954453
179.92260303,-108.75017624,2.34553750,-15.69600698,-92.86590501,1.68332844
-1.11871629,2.24131676

>  <Name>
ligand

>  <RI>
0

>  <Rbt.Current_Directory>
/home/itssahil/PROJECTS/Mol_Feturizer/New_Systems/rnas/2CKY

>  <Rbt.Executable>
rbdock ($Id: //depot/dev/client3/rdock/2013.1/src/exe/rbdock.cxx#4 $)

>  <Rbt.Library>
libRbt.so (2013.1, Build901 2013/11/27)

>  <Rbt.Parameter_File>
/export/apps/rDock/src/rDock_2013.1_src/data/scripts/dock_solv.prm

>  <Rbt.Receptor>
prm/pocket_docking_5.prm

>  <SCORE>
-22.3686

>  <SCORE.INTER>
-15.2078

>  <SCORE.INTER.CONST>
1

>  <SCORE.INTER.POLAR>
0

>  <SCORE.INTER.ROT>
8

>  <SCORE.INTER.SOLV>
17.3635

>  <SCORE.INTER.VDW>
-24.8597

>  <SCORE.INTER.norm>
-0.584914

>  <SCORE.INTRA>
-7.16082

>  <SCORE.INTRA.DIHEDRAL>
-9.44384

>  <SCORE.INTRA.DIHEDRAL.0>
16.4846

>  <SCORE.INTRA.POLAR>
0

>  <SCORE.INTRA.POLAR.0>
0

>  <SCORE.INTRA.REPUL>
0

>  <SCORE.INTRA.REPUL.0>
0

>  <SCORE.INTRA.SOLV>
-0.22034

>  <SCORE.INTRA.SOLV.lig_0>
-82.6983

>  <SCORE.INTRA.VDW>
-2.32873

>  <SCORE.INTRA.VDW.0>
-2.11466

>  <SCORE.INTRA.norm>
-0.275416

>  <SCORE.RESTR>
0

>  <SCORE.RESTR.CAVITY>
0

>  <SCORE.RESTR.norm>
0

>  <SCORE.SYSTEM>
0

>  <SCORE.SYSTEM.CONST>
0

>  <SCORE.SYSTEM.DIHEDRAL>
0

>  <SCORE.SYSTEM.SOLV>
0

>  <SCORE.SYSTEM.norm>
0

>  <SCORE.heavy>
26

>  <SCORE.norm>
-0.86033

>  <RMSD>
3.824

$$$$
ligand
 OpenBabel11021811423D
libRbt.so/2013.1/901 2013/11/27
 26 27  0  0  0  0  0  0  0  0999 V2000
    4.3111  -17.0157  -88.6331 C   0  0  0  0  0  0  0  0  0  0  0  0
   -0.9477  -15.9394  -93.8135 C   0  0  0  0  0  0  0  0  0  0  0  0
    2.2844  -17.5550  -95.2330 P   0  0  2  0  0  0  0  0  0  0  0  0
    4.2755  -16.2533  -96.6514 P   0  0  2  0  0  0  0  0  0  0  0  0
   -0.8243  -17.5753  -91.1191 C   0  0  0  0  0  0  0  0  0  0  0  0
    1.4804  -16.6604  -91.0110 C   0  0  0  0  0  0  0  0  0  0  0  0
    0.5141  -17.4799  -90.4421 C   0  0  0  0  0  0  0  0  0  0  0  0
    0.8063  -18.1345  -89.2420 C   0  0  0  0  0  0  0  0  0  0  0  0
   -0.0444  -18.9340  -88.5978 N   0  0  0  0  0  0  0  0  0  0  0  0
    2.0425  -17.9634  -88.6745 N   0  0  0  0  0  0  0  0  0  0  0  0
    2.9800  -17.1659  -89.2680 C   0  0  0  0  0  0  0  0  0  0  0  0
    2.7191  -16.5062  -90.4262 N   0  0  0  0  0  0  0  0  0  0  0  0
    2.0992  -16.1758  -94.6316 O   0  5  0  0  0  0  0  0  0  0  0  0
    4.5413  -15.2461  -95.5553 O   0  0  0  0  0  0  0  0  0  0  0  0
   -0.7480  -19.8193  -94.3327 S   0  0  0  0  0  0  0  0  0  0  0  0
   -0.7299  -19.4489  -92.7457 C   0  0  0  0  0  0  0  0  0  0  0  0
    2.0272  -18.5521  -94.1063 O   0  0  0  0  0  0  0  0  0  0  0  0
    3.1966  -15.7773  -97.6028 O   0  5  0  0  0  0  0  0  0  0  0  0
   -0.7881  -18.0970  -92.4644 N   0  0  0  0  0  0  0  0  0  0  0  0
    3.7334  -17.5752  -95.9444 O   0  0  0  0  0  0  0  0  0  0  0  0
    5.5726  -16.4985  -97.3951 O   0  0  0  0  0  0  0  0  0  0  0  0
   -0.8543  -17.4042  -93.6481 C   0  0  1  0  0  0  0  0  0  0  0  0
   -0.8428  -18.2794  -94.7455 C   0  0  2  0  0  0  0  0  0  0  0  0
   -0.9083  -18.1113  -96.2435 C   0  0  0  0  0  0  0  0  0  0  0  0
    0.3912  -18.5712  -96.9129 C   0  0  0  0  0  0  0  0  0  0  0  0
    1.4235  -17.6325  -96.6367 O   0  0  0  0  0  0  0  0  0  0  0  0
  1 11  1  0  0  0  0
  3 13  1  1  0  0  0
  3 17  2  0  0  0  0
  3 20  1  0  0  0  0
  3 26  1  0  0  0  0
  4 14  1  1  0  0  0
  4 18  1  0  0  0  0
  4 21  2  0  0  0  0
  4 20  1  0  0  0  0
  5 19  1  0  0  0  0
  5  7  1  0  0  0  0
  6  7  2  0  0  0  0
  6 12  1  0  0  0  0
  7  8  1  0  0  0  0
  8  9  1  0  0  0  0
  8 10  2  0  0  0  0
 10 11  1  0  0  0  0
 11 12  2  0  0  0  0
 15 23  1  0  0  0  0
 15 16  1  0  0  0  0
 16 19  1  0  0  0  0
 19 22  1  0  0  0  0
 22  2  1  1  0  0  0
 22 23  1  0  0  0  0
 23 24  1  1  0  0  0
 24 25  1  0  0  0  0
 25 26  1  0  0  0  0
M  CHG  2  13  -1  18  -1
M  END
>  <CHROM.1>
-35.00179789,81.49778941,61.24633858,67.99569307,-65.45757158,-71.98736489
79.95101454,-121.59692912,1.59654864,-17.49185781,-93.70491388,-1.92585897
-0.42076292,-1.55356644

>  <Name>
ligand

>  <RI>
0

>  <Rbt.Current_Directory>
/home/itssahil/PROJECTS/Mol_Feturizer/New_Systems/rnas/2CKY

>  <Rbt.Executable>
rbdock ($Id: //depot/dev/client3/rdock/2013.1/src/exe/rbdock.cxx#4 $)

>  <Rbt.Library>
libRbt.so (2013.1, Build901 2013/11/27)

>  <Rbt.Parameter_File>
/export/apps/rDock/src/rDock_2013.1_src/data/scripts/dock_solv.prm

>  <Rbt.Receptor>
prm/pocket_docking_5.prm

>  <SCORE>
-20.848

>  <SCORE.INTER>
-17.3764

>  <SCORE.INTER.CONST>
1

>  <SCORE.INTER.POLAR>
0

>  <SCORE.INTER.ROT>
8

>  <SCORE.INTER.SOLV>
22.1811

>  <SCORE.INTER.VDW>
-27.9113

>  <SCORE.INTER.norm>
-0.668322

>  <SCORE.INTRA>
-3.47163

>  <SCORE.INTRA.DIHEDRAL>
-5.75266

>  <SCORE.INTRA.DIHEDRAL.0>
16.4846

>  <SCORE.INTRA.POLAR>
0

>  <SCORE.INTRA.POLAR.0>
0

>  <SCORE.INTRA.REPUL>
0

>  <SCORE.INTRA.REPUL.0>
0

>  <SCORE.INTRA.SOLV>
5.45284

>  <SCORE.INTRA.SOLV.lig_0>
-82.6983

>  <SCORE.INTRA.VDW>
-3.32172

>  <SCORE.INTRA.VDW.0>
-2.11466

>  <SCORE.INTRA.norm>
-0.133524

>  <SCORE.RESTR>
0

>  <SCORE.RESTR.CAVITY>
0

>  <SCORE.RESTR.norm>
0

>  <SCORE.SYSTEM>
0

>  <SCORE.SYSTEM.CONST>
0

>  <SCORE.SYSTEM.DIHEDRAL>
0

>  <SCORE.SYSTEM.SOLV>
0

>  <SCORE.SYSTEM.norm>
0

>  <SCORE.heavy>
26

>  <SCORE.norm>
-0.801846

>  <RMSD>
3.881

$$$$
ligand
 OpenBabel11021811423D
libRbt.so/2013.1/901 2013/11/27
 26 27  0  0  0  0  0  0  0  0999 V2000
    4.0180  -16.7163  -88.6400 C   0  0  0  0  0  0  0  0  0  0  0  0
   -0.5205  -16.5445  -92.3905 C   0  0  0  0  0  0  0  0  0  0  0  0
   -2.3463  -14.3261  -97.5892 P   0  0  2  0  0  0  0  0  0  0  0  0
   -2.1646  -11.7175  -96.6768 P   0  0  2  0  0  0  0  0  0  0  0  0
   -0.0077  -19.5493  -91.5781 C   0  0  0  0  0  0  0  0  0  0  0  0
    2.1666  -18.3649  -91.4054 C   0  0  0  0  0  0  0  0  0  0  0  0
    1.0294  -18.8328  -90.7598 C   0  0  0  0  0  0  0  0  0  0  0  0
    0.8727  -18.5716  -89.3954 C   0  0  0  0  0  0  0  0  0  0  0  0
   -0.1800  -18.9584  -88.6743 N   0  0  0  0  0  0  0  0  0  0  0  0
    1.8538  -17.8798  -88.7333 N   0  0  0  0  0  0  0  0  0  0  0  0
    2.9712  -17.4490  -89.3915 C   0  0  0  0  0  0  0  0  0  0  0  0
    3.1435  -17.6755  -90.7195 N   0  0  0  0  0  0  0  0  0  0  0  0
   -1.4212  -15.3453  -98.2244 O   0  5  0  0  0  0  0  0  0  0  0  0
   -2.0799  -12.0528  -95.2047 O   0  0  0  0  0  0  0  0  0  0  0  0
   -0.5123  -19.0198  -95.4296 S   0  0  0  0  0  0  0  0  0  0  0  0
   -0.2281  -19.8169  -94.0367 C   0  0  0  0  0  0  0  0  0  0  0  0
   -3.6236  -14.3272  -98.4250 O   0  0  0  0  0  0  0  0  0  0  0  0
   -3.6006  -11.5845  -97.1414 O   0  5  0  0  0  0  0  0  0  0  0  0
   -0.2035  -19.0210  -92.9071 N   0  0  0  0  0  0  0  0  0  0  0  0
   -1.5226  -12.9430  -97.4687 O   0  0  0  0  0  0  0  0  0  0  0  0
   -1.4051  -10.4281  -96.9142 O   0  0  0  0  0  0  0  0  0  0  0  0
   -0.4412  -17.7211  -93.2799 C   0  0  1  0  0  0  0  0  0  0  0  0
   -0.6309  -17.6214  -94.6672 C   0  0  2  0  0  0  0  0  0  0  0  0
   -0.9329  -16.4939  -95.6233 C   0  0  0  0  0  0  0  0  0  0  0  0
   -2.3184  -15.8951  -95.3584 C   0  0  0  0  0  0  0  0  0  0  0  0
   -2.4035  -14.6123  -95.9667 O   0  0  0  0  0  0  0  0  0  0  0  0
  1 11  1  0  0  0  0
  3 13  1  6  0  0  0
  3 17  2  0  0  0  0
  3 20  1  0  0  0  0
  3 26  1  0  0  0  0
  4 14  1  1  0  0  0
  4 18  1  0  0  0  0
  4 21  2  0  0  0  0
  4 20  1  0  0  0  0
  5 19  1  0  0  0  0
  5  7  1  0  0  0  0
  6  7  2  0  0  0  0
  6 12  1  0  0  0  0
  7  8  1  0  0  0  0
  8  9  1  0  0  0  0
  8 10  2  0  0  0  0
 10 11  1  0  0  0  0
 11 12  2  0  0  0  0
 15 23  1  0  0  0  0
 15 16  1  0  0  0  0
 16 19  1  0  0  0  0
 19 22  1  0  0  0  0
 22  2  1  1  0  0  0
 22 23  1  0  0  0  0
 23 24  1  1  0  0  0
 24 25  1  0  0  0  0
 25 26  1  0  0  0  0
M  CHG  2  13  -1  18  -1
M  END
>  <CHROM.1>
-172.65655055,131.36814245,-36.95997203,73.90694632,114.43243494,162.10864503
65.07230246,-33.61177633,-0.65177097,-15.96527326,-94.22459045,-0.58110473
-1.06267785,0.02862004

>  <Name>
ligand

>  <RI>
0

>  <Rbt.Current_Directory>
/home/itssahil/PROJECTS/Mol_Feturizer/New_Systems/rnas/2CKY

>  <Rbt.Executable>
rbdock ($Id: //depot/dev/client3/rdock/2013.1/src/exe/rbdock.cxx#4 $)

>  <Rbt.Library>
libRbt.so (2013.1, Build901 2013/11/27)

>  <Rbt.Parameter_File>
/export/apps/rDock/src/rDock_2013.1_src/data/scripts/dock_solv.prm

>  <Rbt.Receptor>
prm/pocket_docking_5.prm

>  <SCORE>
-17.5399

>  <SCORE.INTER>
-12.4762

>  <SCORE.INTER.CONST>
1

>  <SCORE.INTER.POLAR>
0

>  <SCORE.INTER.ROT>
8

>  <SCORE.INTER.SOLV>
23.5652

>  <SCORE.INTER.VDW>
-25.1059

>  <SCORE.INTER.norm>
-0.479853

>  <SCORE.INTRA>
-5.0643

>  <SCORE.INTRA.DIHEDRAL>
-9.02396

>  <SCORE.INTRA.DIHEDRAL.0>
16.4846

>  <SCORE.INTRA.POLAR>
0

>  <SCORE.INTRA.POLAR.0>
0

>  <SCORE.INTRA.REPUL>
0

>  <SCORE.INTRA.REPUL.0>
0

>  <SCORE.INTRA.SOLV>
0.672272

>  <SCORE.INTRA.SOLV.lig_0>
-82.6983

>  <SCORE.INTRA.VDW>
-0.888459

>  <SCORE.INTRA.VDW.0>
-2.11466

>  <SCORE.INTRA.norm>
-0.194781

>  <SCORE.RESTR>
0.000575659

>  <SCORE.RESTR.CAVITY>
0.000575659

>  <SCORE.RESTR.norm>
2.21407e-05

>  <SCORE.SYSTEM>
0

>  <SCORE.SYSTEM.CONST>
0

>  <SCORE.SYSTEM.DIHEDRAL>
0

>  <SCORE.SYSTEM.SOLV>
0

>  <SCORE.SYSTEM.norm>
0

>  <SCORE.heavy>
26

>  <SCORE.norm>
-0.674612

>  <RMSD>
3.886

$$$$
ligand
 OpenBabel11021811423D
libRbt.so/2013.1/901 2013/11/27
 26 27  0  0  0  0  0  0  0  0999 V2000
   -0.2645  -19.2469  -85.4813 C   0  0  0  0  0  0  0  0  0  0  0  0
    0.7066  -15.4428  -92.7080 C   0  0  0  0  0  0  0  0  0  0  0  0
    0.6016  -17.9401  -97.4766 P   0  0  2  0  0  0  0  0  0  0  0  0
   -0.4993  -20.4431  -97.9163 P   0  0  2  0  0  0  0  0  0  0  0  0
    1.6012  -17.6784  -90.6702 C   0  0  0  0  0  0  0  0  0  0  0  0
   -0.1386  -18.5439  -89.1259 C   0  0  0  0  0  0  0  0  0  0  0  0
    1.1513  -18.0544  -89.2863 C   0  0  0  0  0  0  0  0  0  0  0  0
    1.9897  -17.9838  -88.1699 C   0  0  0  0  0  0  0  0  0  0  0  0
    3.2482  -17.5447  -88.2043 N   0  0  0  0  0  0  0  0  0  0  0  0
    1.5076  -18.3808  -86.9495 N   0  0  0  0  0  0  0  0  0  0  0  0
    0.2272  -18.8398  -86.8192 C   0  0  0  0  0  0  0  0  0  0  0  0
   -0.6050  -18.9330  -87.8886 N   0  0  0  0  0  0  0  0  0  0  0  0
   -0.2621  -17.7061  -98.7003 O   0  5  0  0  0  0  0  0  0  0  0  0
   -0.7867  -21.6816  -97.0977 O   0  0  0  0  0  0  0  0  0  0  0  0
   -1.3155  -18.7836  -93.0450 S   0  0  0  0  0  0  0  0  0  0  0  0
   -0.1897  -18.9075  -91.8731 C   0  0  0  0  0  0  0  0  0  0  0  0
    2.0253  -17.5644  -97.8787 O   0  0  0  0  0  0  0  0  0  0  0  0
    0.3650  -20.7537  -99.1214 O   0  5  0  0  0  0  0  0  0  0  0  0
    0.5817  -17.7758  -91.6872 N   0  0  0  0  0  0  0  0  0  0  0  0
    0.3296  -19.4525  -96.9821 O   0  0  0  0  0  0  0  0  0  0  0  0
   -1.8216  -19.8426  -98.3483 O   0  0  0  0  0  0  0  0  0  0  0  0
    0.1685  -16.8118  -92.5735 C   0  0  1  0  0  0  0  0  0  0  0  0
   -0.8888  -17.2792  -93.3697 C   0  0  2  0  0  0  0  0  0  0  0  0
   -1.7368  -16.6887  -94.4692 C   0  0  0  0  0  0  0  0  0  0  0  0
   -1.4843  -17.3930  -95.8065 C   0  0  0  0  0  0  0  0  0  0  0  0
   -0.1228  -17.2227  -96.1811 O   0  0  0  0  0  0  0  0  0  0  0  0
  1 11  1  0  0  0  0
  3 13  1  6  0  0  0
  3 17  2  0  0  0  0
  3 20  1  0  0  0  0
  3 26  1  0  0  0  0
  4 14  1  1  0  0  0
  4 18  1  0  0  0  0
  4 21  2  0  0  0  0
  4 20  1  0  0  0  0
  5 19  1  0  0  0  0
  5  7  1  0  0  0  0
  6  7  2  0  0  0  0
  6 12  1  0  0  0  0
  7  8  1  0  0  0  0
  8  9  1  0  0  0  0
  8 10  2  0  0  0  0
 10 11  1  0  0  0  0
 11 12  2  0  0  0  0
 15 23  1  0  0  0  0
 15 16  1  0  0  0  0
 16 19  1  0  0  0  0
 19 22  1  0  0  0  0
 22  2  1  1  0  0  0
 22 23  1  0  0  0  0
 23 24  1  1  0  0  0
 24 25  1  0  0  0  0
 25 26  1  0  0  0  0
M  CHG  2  13  -1  18  -1
M  END
>  <CHROM.1>
10.54444002,-51.20925907,4.59807765,-170.59732655,-66.56529835,-61.43617950
173.85589651,50.19435363,0.08294838,-18.46222748,-93.61129296,1.35249098
1.10312252,1.67663308

>  <Name>
ligand

>  <RI>
0

>  <Rbt.Current_Directory>
/home/itssahil/PROJECTS/Mol_Feturizer/New_Systems/rnas/2CKY

>  <Rbt.Executable>
rbdock ($Id: //depot/dev/client3/rdock/2013.1/src/exe/rbdock.cxx#4 $)

>  <Rbt.Library>
libRbt.so (2013.1, Build901 2013/11/27)

>  <Rbt.Parameter_File>
/export/apps/rDock/src/rDock_2013.1_src/data/scripts/dock_solv.prm

>  <Rbt.Receptor>
prm/pocket_docking_8.prm

>  <SCORE>
-23.8659

>  <SCORE.INTER>
-20.7154

>  <SCORE.INTER.CONST>
1

>  <SCORE.INTER.POLAR>
0

>  <SCORE.INTER.ROT>
8

>  <SCORE.INTER.SOLV>
23.6248

>  <SCORE.INTER.VDW>
-30.6185

>  <SCORE.INTER.norm>
-0.796747

>  <SCORE.INTRA>
-3.15047

>  <SCORE.INTRA.DIHEDRAL>
-8.6454

>  <SCORE.INTRA.DIHEDRAL.0>
16.4846

>  <SCORE.INTRA.POLAR>
0

>  <SCORE.INTRA.POLAR.0>
0

>  <SCORE.INTRA.REPUL>
0

>  <SCORE.INTRA.REPUL.0>
0

>  <SCORE.INTRA.SOLV>
2.49917

>  <SCORE.INTRA.SOLV.lig_0>
-82.6983

>  <SCORE.INTRA.VDW>
-0.0773539

>  <SCORE.INTRA.VDW.0>
-2.11466

>  <SCORE.INTRA.norm>
-0.121172

>  <SCORE.RESTR>
0

>  <SCORE.RESTR.CAVITY>
0

>  <SCORE.RESTR.norm>
0

>  <SCORE.SYSTEM>
0

>  <SCORE.SYSTEM.CONST>
0

>  <SCORE.SYSTEM.DIHEDRAL>
0

>  <SCORE.SYSTEM.SOLV>
0

>  <SCORE.SYSTEM.norm>
0

>  <SCORE.heavy>
26

>  <SCORE.norm>
-0.917919

>  <RMSD>
3.905

$$$$
ligand
 OpenBabel11021811423D
libRbt.so/2013.1/901 2013/11/27
 26 27  0  0  0  0  0  0  0  0999 V2000
    4.3884  -16.3908  -90.6038 C   0  0  0  0  0  0  0  0  0  0  0  0
   -0.5743  -19.4702  -95.4038 C   0  0  0  0  0  0  0  0  0  0  0  0
    2.2965  -16.8631  -98.1456 P   0  0  2  0  0  0  0  0  0  0  0  0
    2.9044  -16.6747  -95.4501 P   0  0  2  0  0  0  0  0  0  0  0  0
   -0.7103  -18.1602  -92.5373 C   0  0  0  0  0  0  0  0  0  0  0  0
    0.8294  -16.4198  -91.6650 C   0  0  0  0  0  0  0  0  0  0  0  0
    0.6512  -17.7394  -92.0597 C   0  0  0  0  0  0  0  0  0  0  0  0
    1.7240  -18.6284  -91.9453 C   0  0  0  0  0  0  0  0  0  0  0  0
    1.6677  -19.9179  -92.2798 N   0  0  0  0  0  0  0  0  0  0  0  0
    2.9227  -18.1668  -91.4663 N   0  0  0  0  0  0  0  0  0  0  0  0
    3.0734  -16.8579  -91.1041 C   0  0  0  0  0  0  0  0  0  0  0  0
    2.0449  -15.9752  -91.1907 N   0  0  0  0  0  0  0  0  0  0  0  0
    2.6613  -17.7662  -99.3073 O   0  5  0  0  0  0  0  0  0  0  0  0
    3.5647  -17.5357  -94.3969 O   0  0  0  0  0  0  0  0  0  0  0  0
   -1.9728  -15.8086  -95.4087 S   0  0  0  0  0  0  0  0  0  0  0  0
   -1.6153  -16.2866  -93.8921 C   0  0  0  0  0  0  0  0  0  0  0  0
    2.6715  -15.4457  -98.5704 O   0  0  0  0  0  0  0  0  0  0  0  0
    1.4326  -16.4613  -95.1603 O   0  5  0  0  0  0  0  0  0  0  0  0
   -1.1219  -17.5736  -93.7902 N   0  0  0  0  0  0  0  0  0  0  0  0
    3.0049  -17.4700  -96.8281 O   0  0  0  0  0  0  0  0  0  0  0  0
    3.6353  -15.3486  -95.5056 O   0  0  0  0  0  0  0  0  0  0  0  0
   -1.0584  -18.1208  -95.0480 C   0  0  1  0  0  0  0  0  0  0  0  0
   -1.5074  -17.2100  -96.0171 C   0  0  2  0  0  0  0  0  0  0  0  0
   -1.6493  -17.2354  -97.5190 C   0  0  0  0  0  0  0  0  0  0  0  0
   -0.4203  -16.6293  -98.2050 C   0  0  0  0  0  0  0  0  0  0  0  0
    0.7586  -17.2188  -97.6704 O   0  0  0  0  0  0  0  0  0  0  0  0
  1 11  1  0  0  0  0
  3 13  1  6  0  0  0
  3 17  2  0  0  0  0
  3 20  1  0  0  0  0
  3 26  1  0  0  0  0
  4 14  1  1  0  0  0
  4 18  1  0  0  0  0
  4 21  2  0  0  0  0
  4 20  1  0  0  0  0
  5 19  1  0  0  0  0
  5  7  1  0  0  0  0
  6  7  2  0  0  0  0
  6 12  1  0  0  0  0
  7  8  1  0  0  0  0
  8  9  1  0  0  0  0
  8 10  2  0  0  0  0
 10 11  1  0  0  0  0
 11 12  2  0  0  0  0
 15 23  1  0  0  0  0
 15 16  1  0  0  0  0
 16 19  1  0  0  0  0
 19 22  1  0  0  0  0
 22  2  1  6  0  0  0
 22 23  1  0  0  0  0
 23 24  1  6  0  0  0
 24 25  1  0  0  0  0
 25 26  1  0  0  0  0
M  CHG  2  13  -1  18  -1
M  END
>  <CHROM.1>
175.23534169,-79.19508953,67.84763281,175.77125807,84.96634901,49.89569248
179.19476155,-88.22610854,1.20084370,-17.09529066,-94.98074825,-1.40110291
-0.08339229,-1.46123694

>  <Name>
ligand

>  <RI>
0

>  <Rbt.Current_Directory>
/home/itssahil/PROJECTS/Mol_Feturizer/New_Systems/rnas/2CKY

>  <Rbt.Executable>
rbdock ($Id: //depot/dev/client3/rdock/2013.1/src/exe/rbdock.cxx#4 $)

>  <Rbt.Library>
libRbt.so (2013.1, Build901 2013/11/27)

>  <Rbt.Parameter_File>
/export/apps/rDock/src/rDock_2013.1_src/data/scripts/dock_solv.prm

>  <Rbt.Receptor>
prm/pocket_docking_4.prm

>  <SCORE>
-15.4298

>  <SCORE.INTER>
-7.73068

>  <SCORE.INTER.CONST>
1

>  <SCORE.INTER.POLAR>
0

>  <SCORE.INTER.ROT>
8

>  <SCORE.INTER.SOLV>
14.0597

>  <SCORE.INTER.VDW>
-18.7737

>  <SCORE.INTER.norm>
-0.297334

>  <SCORE.INTRA>
-7.69914

>  <SCORE.INTRA.DIHEDRAL>
-10.2317

>  <SCORE.INTRA.DIHEDRAL.0>
16.4846

>  <SCORE.INTRA.POLAR>
0

>  <SCORE.INTRA.POLAR.0>
0

>  <SCORE.INTRA.REPUL>
0

>  <SCORE.INTRA.REPUL.0>
0

>  <SCORE.INTRA.SOLV>
5.28108

>  <SCORE.INTRA.SOLV.lig_0>
-82.6983

>  <SCORE.INTRA.VDW>
-5.22385

>  <SCORE.INTRA.VDW.0>
-2.11466

>  <SCORE.INTRA.norm>
-0.296121

>  <SCORE.RESTR>
0

>  <SCORE.RESTR.CAVITY>
0

>  <SCORE.RESTR.norm>
0

>  <SCORE.SYSTEM>
0

>  <SCORE.SYSTEM.CONST>
0

>  <SCORE.SYSTEM.DIHEDRAL>
0

>  <SCORE.SYSTEM.SOLV>
0

>  <SCORE.SYSTEM.norm>
0

>  <SCORE.heavy>
26

>  <SCORE.norm>
-0.593455

>  <RMSD>
3.914

$$$$
ligand
 OpenBabel11021811423D
libRbt.so/2013.1/901 2013/11/27
 26 27  0  0  0  0  0  0  0  0999 V2000
   -0.0136  -19.0508  -86.0050 C   0  0  0  0  0  0  0  0  0  0  0  0
    0.2805  -15.8232  -92.2314 C   0  0  0  0  0  0  0  0  0  0  0  0
   -1.7783  -16.2986  -97.8283 P   0  0  2  0  0  0  0  0  0  0  0  0
   -2.9940  -18.6888  -98.5207 P   0  0  2  0  0  0  0  0  0  0  0  0
    2.5853  -17.4937  -90.8718 C   0  0  0  0  0  0  0  0  0  0  0  0
    2.4789  -17.6927  -88.4001 C   0  0  0  0  0  0  0  0  0  0  0  0
    1.8747  -17.9418  -89.6256 C   0  0  0  0  0  0  0  0  0  0  0  0
    0.6141  -18.5458  -89.6459 C   0  0  0  0  0  0  0  0  0  0  0  0
   -0.0670  -18.8214  -90.7585 N   0  0  0  0  0  0  0  0  0  0  0  0
    0.0224  -18.8909  -88.4584 N   0  0  0  0  0  0  0  0  0  0  0  0
    0.6502  -18.6510  -87.2687 C   0  0  0  0  0  0  0  0  0  0  0  0
    1.8684  -18.0526  -87.2177 N   0  0  0  0  0  0  0  0  0  0  0  0
   -2.9447  -15.5867  -98.4846 O   0  5  0  0  0  0  0  0  0  0  0  0
   -4.3873  -18.1366  -98.7215 O   0  0  0  0  0  0  0  0  0  0  0  0
    1.2231  -19.0887  -94.1837 S   0  0  0  0  0  0  0  0  0  0  0  0
    2.1513  -18.9243  -92.8542 C   0  0  0  0  0  0  0  0  0  0  0  0
   -0.6070  -16.1888  -98.8009 O   0  0  0  0  0  0  0  0  0  0  0  0
   -3.0225  -20.1035  -97.9791 O   0  5  0  0  0  0  0  0  0  0  0  0
    1.8957  -17.7919  -92.1042 N   0  0  0  0  0  0  0  0  0  0  0  0
   -2.2877  -17.7755  -97.4216 O   0  0  0  0  0  0  0  0  0  0  0  0
   -2.2685  -18.6407  -99.8501 O   0  0  0  0  0  0  0  0  0  0  0  0
    0.8823  -17.0863  -92.7048 C   0  0  1  0  0  0  0  0  0  0  0  0
    0.4387  -17.7336  -93.8687 C   0  0  2  0  0  0  0  0  0  0  0  0
   -0.6233  -17.4557  -94.9038 C   0  0  0  0  0  0  0  0  0  0  0  0
   -0.5384  -16.0138  -95.4157 C   0  0  0  0  0  0  0  0  0  0  0  0
   -1.6382  -15.7528  -96.2791 O   0  0  0  0  0  0  0  0  0  0  0  0
  1 11  1  0  0  0  0
  3 13  1  6  0  0  0
  3 17  2  0  0  0  0
  3 20  1  0  0  0  0
  3 26  1  0  0  0  0
  4 14  1  6  0  0  0
  4 18  1  0  0  0  0
  4 21  2  0  0  0  0
  4 20  1  0  0  0  0
  5 19  1  0  0  0  0
  5  7  1  0  0  0  0
  6  7  2  0  0  0  0
  6 12  1  0  0  0  0
  7  8  1  0  0  0  0
  8  9  1  0  0  0  0
  8 10  2  0  0  0  0
 10 11  1  0  0  0  0
 11 12  2  0  0  0  0
 15 23  1  0  0  0  0
 15 16  1  0  0  0  0
 16 19  1  0  0  0  0
 19 22  1  0  0  0  0
 22  2  1  1  0  0  0
 22 23  1  0  0  0  0
 23 24  1  1  0  0  0
 24 25  1  0  0  0  0
 25 26  1  0  0  0  0
M  CHG  2  13  -1  18  -1
M  END
>  <CHROM.1>
51.74422796,-94.84561244,179.83752420,-74.75469986,-131.29867804,-173.89344086
-75.45462342,-169.05617451,-0.47299633,-17.78885370,-94.12078693,1.03779539
0.78220933,2.04250812

>  <Name>
ligand

>  <RI>
0

>  <Rbt.Current_Directory>
/home/itssahil/PROJECTS/Mol_Feturizer/New_Systems/rnas/2CKY

>  <Rbt.Executable>
rbdock ($Id: //depot/dev/client3/rdock/2013.1/src/exe/rbdock.cxx#4 $)

>  <Rbt.Library>
libRbt.so (2013.1, Build901 2013/11/27)

>  <Rbt.Parameter_File>
/export/apps/rDock/src/rDock_2013.1_src/data/scripts/dock_solv.prm

>  <Rbt.Receptor>
prm/pocket_docking_5.prm

>  <SCORE>
-23.8306

>  <SCORE.INTER>
-20.8239

>  <SCORE.INTER.CONST>
1

>  <SCORE.INTER.POLAR>
0

>  <SCORE.INTER.ROT>
8

>  <SCORE.INTER.SOLV>
12.7766

>  <SCORE.INTER.VDW>
-27.0748

>  <SCORE.INTER.norm>
-0.800918

>  <SCORE.INTRA>
-3.03577

>  <SCORE.INTRA.DIHEDRAL>
-9.75957

>  <SCORE.INTRA.DIHEDRAL.0>
16.4846

>  <SCORE.INTRA.POLAR>
0

>  <SCORE.INTRA.POLAR.0>
0

>  <SCORE.INTRA.REPUL>
0

>  <SCORE.INTRA.REPUL.0>
0

>  <SCORE.INTRA.SOLV>
6.13131

>  <SCORE.INTRA.SOLV.lig_0>
-82.6983

>  <SCORE.INTRA.VDW>
-1.22164

>  <SCORE.INTRA.VDW.0>
-2.11466

>  <SCORE.INTRA.norm>
-0.116761

>  <SCORE.RESTR>
0.029075

>  <SCORE.RESTR.CAVITY>
0.029075

>  <SCORE.RESTR.norm>
0.00111827

>  <SCORE.SYSTEM>
0

>  <SCORE.SYSTEM.CONST>
0

>  <SCORE.SYSTEM.DIHEDRAL>
0

>  <SCORE.SYSTEM.SOLV>
0

>  <SCORE.SYSTEM.norm>
0

>  <SCORE.heavy>
26

>  <SCORE.norm>
-0.916561

>  <RMSD>
3.936

$$$$
ligand
 OpenBabel11021811423D
libRbt.so/2013.1/901 2013/11/27
 26 27  0  0  0  0  0  0  0  0999 V2000
    1.4001  -18.3492  -87.7331 C   0  0  0  0  0  0  0  0  0  0  0  0
    2.8555  -13.6719  -92.0020 C   0  0  0  0  0  0  0  0  0  0  0  0
   -0.0831  -12.1600  -96.3732 P   0  0  2  0  0  0  0  0  0  0  0  0
   -1.4290  -13.0744  -98.6144 P   0  0  2  0  0  0  0  0  0  0  0  0
    5.1084  -15.7466  -91.2461 C   0  0  0  0  0  0  0  0  0  0  0  0
    4.2827  -16.3740  -88.9910 C   0  0  0  0  0  0  0  0  0  0  0  0
    4.1234  -16.4657  -90.3677 C   0  0  0  0  0  0  0  0  0  0  0  0
    3.0293  -17.1730  -90.8745 C   0  0  0  0  0  0  0  0  0  0  0  0
    2.7668  -17.3174  -92.1737 N   0  0  0  0  0  0  0  0  0  0  0  0
    2.1594  -17.7700  -89.9990 N   0  0  0  0  0  0  0  0  0  0  0  0
    2.3532  -17.6788  -88.6494 C   0  0  0  0  0  0  0  0  0  0  0  0
    3.3989  -16.9862  -88.1284 N   0  0  0  0  0  0  0  0  0  0  0  0
   -0.4326  -11.4797  -95.0644 O   0  5  0  0  0  0  0  0  0  0  0  0
   -0.5978  -12.1640  -99.4901 O   0  0  0  0  0  0  0  0  0  0  0  0
    4.3599  -15.5603  -95.0897 S   0  0  0  0  0  0  0  0  0  0  0  0
    5.0823  -16.0436  -93.7110 C   0  0  0  0  0  0  0  0  0  0  0  0
    0.9727  -11.2844  -97.0428 O   0  0  0  0  0  0  0  0  0  0  0  0
   -2.8601  -13.1712  -99.1025 O   0  5  0  0  0  0  0  0  0  0  0  0
    4.6212  -15.4228  -92.5656 N   0  0  0  0  0  0  0  0  0  0  0  0
   -1.4673  -12.4138  -97.1642 O   0  0  0  0  0  0  0  0  0  0  0  0
   -0.7770  -14.4421  -98.5980 O   0  0  0  0  0  0  0  0  0  0  0  0
    3.6338  -14.5345  -92.9141 C   0  0  1  0  0  0  0  0  0  0  0  0
    3.4138  -14.5441  -94.3005 C   0  0  2  0  0  0  0  0  0  0  0  0
    2.4776  -13.8197  -95.2361 C   0  0  0  0  0  0  0  0  0  0  0  0
    1.0234  -14.2473  -95.0102 C   0  0  0  0  0  0  0  0  0  0  0  0
    0.2149  -13.7529  -96.0707 O   0  0  0  0  0  0  0  0  0  0  0  0
  1 11  1  0  0  0  0
  3 13  1  1  0  0  0
  3 17  2  0  0  0  0
  3 20  1  0  0  0  0
  3 26  1  0  0  0  0
  4 14  1  6  0  0  0
  4 18  1  0  0  0  0
  4 21  2  0  0  0  0
  4 20  1  0  0  0  0
  5 19  1  0  0  0  0
  5  7  1  0  0  0  0
  6  7  2  0  0  0  0
  6 12  1  0  0  0  0
  7  8  1  0  0  0  0
  8  9  1  0  0  0  0
  8 10  2  0  0  0  0
 10 11  1  0  0  0  0
 11 12  2  0  0  0  0
 15 23  1  0  0  0  0
 15 16  1  0  0  0  0
 16 19  1  0  0  0  0
 19 22  1  0  0  0  0
 22  2  1  1  0  0  0
 22 23  1  0  0  0  0
 23 24  1  1  0  0  0
 24 25  1  0  0  0  0
 25 26  1  0  0  0  0
M  CHG  2  13  -1  18  -1
M  END
>  <CHROM.1>
177.83550514,-109.91744069,-156.14978084,-59.38221879,111.96231571,-168.55669822
-65.77165058,-45.97574798,1.65248659,-14.57510711,-94.26311606,1.11600651
-0.04890710,2.03441725

>  <Name>
ligand

>  <RI>
0

>  <Rbt.Current_Directory>
/home/itssahil/PROJECTS/Mol_Feturizer/New_Systems/rnas/2CKY

>  <Rbt.Executable>
rbdock ($Id: //depot/dev/client3/rdock/2013.1/src/exe/rbdock.cxx#4 $)

>  <Rbt.Library>
libRbt.so (2013.1, Build901 2013/11/27)

>  <Rbt.Parameter_File>
/export/apps/rDock/src/rDock_2013.1_src/data/scripts/dock_solv.prm

>  <Rbt.Receptor>
prm/pocket_docking_5.prm

>  <SCORE>
-19.631

>  <SCORE.INTER>
-14.8243

>  <SCORE.INTER.CONST>
1

>  <SCORE.INTER.POLAR>
0

>  <SCORE.INTER.ROT>
8

>  <SCORE.INTER.SOLV>
10.2606

>  <SCORE.INTER.VDW>
-22.2364

>  <SCORE.INTER.norm>
-0.570165

>  <SCORE.INTRA>
-4.80667

>  <SCORE.INTRA.DIHEDRAL>
-10.6023

>  <SCORE.INTRA.DIHEDRAL.0>
16.4846

>  <SCORE.INTRA.POLAR>
0

>  <SCORE.INTRA.POLAR.0>
0

>  <SCORE.INTRA.REPUL>
0

>  <SCORE.INTRA.REPUL.0>
0

>  <SCORE.INTRA.SOLV>
5.00648

>  <SCORE.INTRA.SOLV.lig_0>
-82.6983

>  <SCORE.INTRA.VDW>
-2.00878

>  <SCORE.INTRA.VDW.0>
-2.11466

>  <SCORE.INTRA.norm>
-0.184872

>  <SCORE.RESTR>
0

>  <SCORE.RESTR.CAVITY>
0

>  <SCORE.RESTR.norm>
0

>  <SCORE.SYSTEM>
0

>  <SCORE.SYSTEM.CONST>
0

>  <SCORE.SYSTEM.DIHEDRAL>
0

>  <SCORE.SYSTEM.SOLV>
0

>  <SCORE.SYSTEM.norm>
0

>  <SCORE.heavy>
26

>  <SCORE.norm>
-0.755037

>  <RMSD>
3.966

$$$$
ligand
 OpenBabel11021811423D
libRbt.so/2013.1/901 2013/11/27
 26 27  0  0  0  0  0  0  0  0999 V2000
   -0.7166  -19.6612  -86.0260 C   0  0  0  0  0  0  0  0  0  0  0  0
    3.5750  -15.7431  -92.5811 C   0  0  0  0  0  0  0  0  0  0  0  0
   -1.0945  -16.3800  -95.7113 P   0  0  2  0  0  0  0  0  0  0  0  0
   -1.1611  -18.5983  -97.3682 P   0  0  2  0  0  0  0  0  0  0  0  0
    2.6924  -17.2470  -89.9523 C   0  0  0  0  0  0  0  0  0  0  0  0
    2.2819  -18.2971  -87.7411 C   0  0  0  0  0  0  0  0  0  0  0  0
    1.7630  -17.8960  -88.9654 C   0  0  0  0  0  0  0  0  0  0  0  0
    0.3959  -18.0618  -89.2056 C   0  0  0  0  0  0  0  0  0  0  0  0
   -0.2156  -17.7035  -90.3350 N   0  0  0  0  0  0  0  0  0  0  0  0
   -0.3860  -18.6322  -88.2347 N   0  0  0  0  0  0  0  0  0  0  0  0
    0.1568  -19.0351  -87.0471 C   0  0  0  0  0  0  0  0  0  0  0  0
    1.4787  -18.8733  -86.7804 N   0  0  0  0  0  0  0  0  0  0  0  0
   -2.2333  -17.0586  -94.9761 O   0  5  0  0  0  0  0  0  0  0  0  0
   -0.5572  -19.2277  -96.1330 O   0  0  0  0  0  0  0  0  0  0  0  0
    1.8291  -19.1887  -93.2467 S   0  0  0  0  0  0  0  0  0  0  0  0
    1.9326  -18.8950  -91.6469 C   0  0  0  0  0  0  0  0  0  0  0  0
   -1.3404  -14.8784  -95.5899 O   0  0  0  0  0  0  0  0  0  0  0  0
   -0.3973  -18.9742  -98.6216 O   0  5  0  0  0  0  0  0  0  0  0  0
    2.5446  -17.7013  -91.3143 N   0  0  0  0  0  0  0  0  0  0  0  0
   -1.0342  -17.0190  -97.1925 O   0  0  0  0  0  0  0  0  0  0  0  0
   -2.6058  -19.0437  -97.4697 O   0  0  0  0  0  0  0  0  0  0  0  0
    2.9091  -17.0569  -92.4708 C   0  0  1  0  0  0  0  0  0  0  0  0
    2.5470  -17.8067  -93.6010 C   0  0  2  0  0  0  0  0  0  0  0  0
    2.6677  -17.6124  -95.0923 C   0  0  0  0  0  0  0  0  0  0  0  0
    1.6204  -16.6215  -95.6115 C   0  0  0  0  0  0  0  0  0  0  0  0
    0.3257  -17.0430  -95.2004 O   0  0  0  0  0  0  0  0  0  0  0  0
  1 11  1  0  0  0  0
  3 13  1  1  0  0  0
  3 17  2  0  0  0  0
  3 20  1  0  0  0  0
  3 26  1  0  0  0  0
  4 14  1  1  0  0  0
  4 18  1  0  0  0  0
  4 21  2  0  0  0  0
  4 20  1  0  0  0  0
  5 19  1  0  0  0  0
  5  7  1  0  0  0  0
  6  7  2  0  0  0  0
  6 12  1  0  0  0  0
  7  8  1  0  0  0  0
  8  9  1  0  0  0  0
  8 10  2  0  0  0  0
 10 11  1  0  0  0  0
 11 12  2  0  0  0  0
 15 23  1  0  0  0  0
 15 16  1  0  0  0  0
 16 19  1  0  0  0  0
 19 22  1  0  0  0  0
 22  2  1  6  0  0  0
 22 23  1  0  0  0  0
 23 24  1  6  0  0  0
 24 25  1  0  0  0  0
 25 26  1  0  0  0  0
M  CHG  2  13  -1  18  -1
M  END
>  <CHROM.1>
-44.38497532,-19.48329566,136.54676946,-31.34093051,102.94972543,-53.90688639
-171.33171858,-176.65359256,0.46879850,-17.86474881,-93.16091599,1.33283082
0.27315779,1.72314100

>  <Name>
ligand

>  <RI>
0

>  <Rbt.Current_Directory>
/home/itssahil/PROJECTS/Mol_Feturizer/New_Systems/rnas/2CKY

>  <Rbt.Executable>
rbdock ($Id: //depot/dev/client3/rdock/2013.1/src/exe/rbdock.cxx#4 $)

>  <Rbt.Library>
libRbt.so (2013.1, Build901 2013/11/27)

>  <Rbt.Parameter_File>
/export/apps/rDock/src/rDock_2013.1_src/data/scripts/dock_solv.prm

>  <Rbt.Receptor>
prm/pocket_docking_4.prm

>  <SCORE>
-25.2338

>  <SCORE.INTER>
-19.6065

>  <SCORE.INTER.CONST>
1

>  <SCORE.INTER.POLAR>
0

>  <SCORE.INTER.ROT>
8

>  <SCORE.INTER.SOLV>
17.9807

>  <SCORE.INTER.VDW>
-27.9979

>  <SCORE.INTER.norm>
-0.754096

>  <SCORE.INTRA>
-5.62729

>  <SCORE.INTRA.DIHEDRAL>
-9.85768

>  <SCORE.INTRA.DIHEDRAL.0>
16.4846

>  <SCORE.INTRA.POLAR>
0

>  <SCORE.INTRA.POLAR.0>
0

>  <SCORE.INTRA.REPUL>
0

>  <SCORE.INTRA.REPUL.0>
0

>  <SCORE.INTRA.SOLV>
1.42059

>  <SCORE.INTRA.SOLV.lig_0>
-82.6983

>  <SCORE.INTRA.VDW>
-1.40874

>  <SCORE.INTRA.VDW.0>
-2.11466

>  <SCORE.INTRA.norm>
-0.216434

>  <SCORE.RESTR>
0

>  <SCORE.RESTR.CAVITY>
0

>  <SCORE.RESTR.norm>
0

>  <SCORE.SYSTEM>
0

>  <SCORE.SYSTEM.CONST>
0

>  <SCORE.SYSTEM.DIHEDRAL>
0

>  <SCORE.SYSTEM.SOLV>
0

>  <SCORE.SYSTEM.norm>
0

>  <SCORE.heavy>
26

>  <SCORE.norm>
-0.97053

>  <RMSD>
3.969

$$$$
ligand
 OpenBabel11021811423D
libRbt.so/2013.1/901 2013/11/27
 26 27  0  0  0  0  0  0  0  0999 V2000
    1.4842  -18.3791  -87.6071 C   0  0  0  0  0  0  0  0  0  0  0  0
    0.1569  -16.1669  -95.6697 C   0  0  0  0  0  0  0  0  0  0  0  0
   -3.3040  -17.7972  -99.2007 P   0  0  2  0  0  0  0  0  0  0  0  0
   -3.1704  -15.1241  -98.4884 P   0  0  2  0  0  0  0  0  0  0  0  0
   -0.6167  -16.6330  -92.6472 C   0  0  0  0  0  0  0  0  0  0  0  0
   -0.8626  -17.6234  -90.3846 C   0  0  0  0  0  0  0  0  0  0  0  0
   -0.0224  -17.0535  -91.3324 C   0  0  0  0  0  0  0  0  0  0  0  0
    1.3418  -16.9457  -91.0467 C   0  0  0  0  0  0  0  0  0  0  0  0
    2.2440  -16.4296  -91.8819 N   0  0  0  0  0  0  0  0  0  0  0  0
    1.8047  -17.3870  -89.8341 N   0  0  0  0  0  0  0  0  0  0  0  0
    0.9504  -17.9255  -88.9136 C   0  0  0  0  0  0  0  0  0  0  0  0
   -0.3771  -18.0562  -89.1693 N   0  0  0  0  0  0  0  0  0  0  0  0
   -3.1608  -18.6187 -100.4666 O   0  5  0  0  0  0  0  0  0  0  0  0
   -4.6368  -15.1044  -98.1200 O   0  0  0  0  0  0  0  0  0  0  0  0
   -0.7269  -19.8909  -94.8249 S   0  0  0  0  0  0  0  0  0  0  0  0
   -0.8386  -18.9564  -93.4944 C   0  0  0  0  0  0  0  0  0  0  0  0
   -4.6846  -18.1190  -98.6348 O   0  0  0  0  0  0  0  0  0  0  0  0
   -2.7307  -13.8169  -99.1158 O   0  5  0  0  0  0  0  0  0  0  0  0
   -0.5350  -17.6230  -93.6944 N   0  0  0  0  0  0  0  0  0  0  0  0
   -2.9844  -16.2630  -99.5882 O   0  0  0  0  0  0  0  0  0  0  0  0
   -2.3698  -15.4101  -97.2342 O   0  0  0  0  0  0  0  0  0  0  0  0
   -0.2141  -17.4388  -95.0168 C   0  0  1  0  0  0  0  0  0  0  0  0
   -0.2977  -18.6458  -95.7285 C   0  0  2  0  0  0  0  0  0  0  0  0
   -0.0845  -19.0527  -97.1656 C   0  0  0  0  0  0  0  0  0  0  0  0
   -1.4190  -19.2675  -97.8876 C   0  0  0  0  0  0  0  0  0  0  0  0
   -1.9499  -18.0091  -98.2846 O   0  0  0  0  0  0  0  0  0  0  0  0
  1 11  1  0  0  0  0
  3 13  1  6  0  0  0
  3 17  2  0  0  0  0
  3 20  1  0  0  0  0
  3 26  1  0  0  0  0
  4 14  1  1  0  0  0
  4 18  1  0  0  0  0
  4 21  2  0  0  0  0
  4 20  1  0  0  0  0
  5 19  1  0  0  0  0
  5  7  1  0  0  0  0
  6  7  2  0  0  0  0
  6 12  1  0  0  0  0
  7  8  1  0  0  0  0
  8  9  1  0  0  0  0
  8 10  2  0  0  0  0
 10 11  1  0  0  0  0
 11 12  2  0  0  0  0
 15 23  1  0  0  0  0
 15 16  1  0  0  0  0
 16 19  1  0  0  0  0
 19 22  1  0  0  0  0
 22  2  1  6  0  0  0
 22 23  1  0  0  0  0
 23 24  1  6  0  0  0
 24 25  1  0  0  0  0
 25 26  1  0  0  0  0
M  CHG  2  13  -1  18  -1
M  END
>  <CHROM.1>
174.91644866,44.97542248,-93.53113465,-62.84776693,75.97682453,80.41398577
174.48218770,-53.26389760,-1.30195139,-17.36453298,-95.35205777,-0.29159991
1.13089216,-2.70320403

>  <Name>
ligand

>  <RI>
0

>  <Rbt.Current_Directory>
/home/itssahil/PROJECTS/Mol_Feturizer/New_Systems/rnas/2CKY

>  <Rbt.Executable>
rbdock ($Id: //depot/dev/client3/rdock/2013.1/src/exe/rbdock.cxx#4 $)

>  <Rbt.Library>
libRbt.so (2013.1, Build901 2013/11/27)

>  <Rbt.Parameter_File>
/export/apps/rDock/src/rDock_2013.1_src/data/scripts/dock_solv.prm

>  <Rbt.Receptor>
prm/pocket_docking_7.prm

>  <SCORE>
-22.0528

>  <SCORE.INTER>
-16.0808

>  <SCORE.INTER.CONST>
1

>  <SCORE.INTER.POLAR>
0

>  <SCORE.INTER.ROT>
8

>  <SCORE.INTER.SOLV>
17.5091

>  <SCORE.INTER.VDW>
-25.4903

>  <SCORE.INTER.norm>
-0.618493

>  <SCORE.INTRA>
-5.97199

>  <SCORE.INTRA.DIHEDRAL>
-9.67919

>  <SCORE.INTRA.DIHEDRAL.0>
16.4846

>  <SCORE.INTRA.POLAR>
0

>  <SCORE.INTRA.POLAR.0>
0

>  <SCORE.INTRA.REPUL>
0

>  <SCORE.INTRA.REPUL.0>
0

>  <SCORE.INTRA.SOLV>
1.55476

>  <SCORE.INTRA.SOLV.lig_0>
-82.6983

>  <SCORE.INTRA.VDW>
-1.90978

>  <SCORE.INTRA.VDW.0>
-2.11466

>  <SCORE.INTRA.norm>
-0.229692

>  <SCORE.RESTR>
0

>  <SCORE.RESTR.CAVITY>
0

>  <SCORE.RESTR.norm>
0

>  <SCORE.SYSTEM>
0

>  <SCORE.SYSTEM.CONST>
0

>  <SCORE.SYSTEM.DIHEDRAL>
0

>  <SCORE.SYSTEM.SOLV>
0

>  <SCORE.SYSTEM.norm>
0

>  <SCORE.heavy>
26

>  <SCORE.norm>
-0.848185

>  <RMSD>
4.011

$$$$
ligand
 OpenBabel11021811423D
libRbt.so/2013.1/901 2013/11/27
 26 27  0  0  0  0  0  0  0  0999 V2000
    2.8960  -17.2814  -88.3231 C   0  0  0  0  0  0  0  0  0  0  0  0
    1.0002  -18.0430  -96.8930 C   0  0  0  0  0  0  0  0  0  0  0  0
    3.2675  -12.6267  -98.1849 P   0  0  2  0  0  0  0  0  0  0  0  0
    4.6189  -11.9743  -95.8571 P   0  0  2  0  0  0  0  0  0  0  0  0
    1.3476  -18.2191  -93.7626 C   0  0  0  0  0  0  0  0  0  0  0  0
    3.0131  -18.1886  -91.9226 C   0  0  0  0  0  0  0  0  0  0  0  0
    1.6987  -17.9817  -92.3207 C   0  0  0  0  0  0  0  0  0  0  0  0
    0.7756  -17.5118  -91.3819 C   0  0  0  0  0  0  0  0  0  0  0  0
   -0.5068  -17.2645  -91.6505 N   0  0  0  0  0  0  0  0  0  0  0  0
    1.1906  -17.2887  -90.0945 N   0  0  0  0  0  0  0  0  0  0  0  0
    2.4864  -17.5202  -89.7276 C   0  0  0  0  0  0  0  0  0  0  0  0
    3.4082  -17.9627  -90.6215 N   0  0  0  0  0  0  0  0  0  0  0  0
    3.4282  -12.3611  -99.6687 O   0  5  0  0  0  0  0  0  0  0  0  0
    5.9991  -11.4915  -95.4717 O   0  0  0  0  0  0  0  0  0  0  0  0
    4.3616  -16.5040  -95.5908 S   0  0  0  0  0  0  0  0  0  0  0  0
    3.4694  -17.0715  -94.3507 C   0  0  0  0  0  0  0  0  0  0  0  0
    1.9084  -12.0540  -97.7916 O   0  0  0  0  0  0  0  0  0  0  0  0
    4.3496  -13.3746  -95.3447 O   0  5  0  0  0  0  0  0  0  0  0  0
    2.2572  -17.6270  -94.7141 N   0  0  0  0  0  0  0  0  0  0  0  0
    4.5780  -12.0371  -97.4494 O   0  0  0  0  0  0  0  0  0  0  0  0
    3.6023  -10.9979  -95.3012 O   0  0  0  0  0  0  0  0  0  0  0  0
    2.1311  -17.5524  -96.0794 C   0  0  1  0  0  0  0  0  0  0  0  0
    3.2577  -16.9460  -96.6571 C   0  0  2  0  0  0  0  0  0  0  0  0
    3.6853  -16.6150  -98.0656 C   0  0  0  0  0  0  0  0  0  0  0  0
    3.0318  -15.3185  -98.5559 C   0  0  0  0  0  0  0  0  0  0  0  0
    3.6282  -14.2090  -97.8954 O   0  0  0  0  0  0  0  0  0  0  0  0
  1 11  1  0  0  0  0
  3 13  1  6  0  0  0
  3 17  2  0  0  0  0
  3 20  1  0  0  0  0
  3 26  1  0  0  0  0
  4 14  1  1  0  0  0
  4 18  1  0  0  0  0
  4 21  2  0  0  0  0
  4 20  1  0  0  0  0
  5 19  1  0  0  0  0
  5  7  1  0  0  0  0
  6  7  2  0  0  0  0
  6 12  1  0  0  0  0
  7  8  1  0  0  0  0
  8  9  1  0  0  0  0
  8 10  2  0  0  0  0
 10 11  1  0  0  0  0
 11 12  2  0  0  0  0
 15 23  1  0  0  0  0
 15 16  1  0  0  0  0
 16 19  1  0  0  0  0
 19 22  1  0  0  0  0
 22  2  1  6  0  0  0
 22 23  1  0  0  0  0
 23 24  1  6  0  0  0
 24 25  1  0  0  0  0
 25 26  1  0  0  0  0
M  CHG  2  13  -1  18  -1
M  END
>  <CHROM.1>
171.33977735,10.03184882,-47.03206495,175.37626803,-99.35901781,72.48689151
176.92047561,-54.01924429,3.07654899,-15.22296098,-95.09248333,-2.19452007
-1.16973593,-1.47270198

>  <Name>
ligand

>  <RI>
0

>  <Rbt.Current_Directory>
/home/itssahil/PROJECTS/Mol_Feturizer/New_Systems/rnas/2CKY

>  <Rbt.Executable>
rbdock ($Id: //depot/dev/client3/rdock/2013.1/src/exe/rbdock.cxx#4 $)

>  <Rbt.Library>
libRbt.so (2013.1, Build901 2013/11/27)

>  <Rbt.Parameter_File>
/export/apps/rDock/src/rDock_2013.1_src/data/scripts/dock_solv.prm

>  <Rbt.Receptor>
prm/pocket_docking_6.prm

>  <SCORE>
-17.8846

>  <SCORE.INTER>
-12.22

>  <SCORE.INTER.CONST>
1

>  <SCORE.INTER.POLAR>
0

>  <SCORE.INTER.ROT>
8

>  <SCORE.INTER.SOLV>
12.9868

>  <SCORE.INTER.VDW>
-21.4089

>  <SCORE.INTER.norm>
-0.469998

>  <SCORE.INTRA>
-5.66462

>  <SCORE.INTRA.DIHEDRAL>
-10.6252

>  <SCORE.INTRA.DIHEDRAL.0>
16.4846

>  <SCORE.INTRA.POLAR>
0

>  <SCORE.INTRA.POLAR.0>
0

>  <SCORE.INTRA.REPUL>
0

>  <SCORE.INTRA.REPUL.0>
0

>  <SCORE.INTRA.SOLV>
1.48788

>  <SCORE.INTRA.SOLV.lig_0>
-82.6983

>  <SCORE.INTRA.VDW>
-1.09599

>  <SCORE.INTRA.VDW.0>
-2.11466

>  <SCORE.INTRA.norm>
-0.21787

>  <SCORE.RESTR>
0

>  <SCORE.RESTR.CAVITY>
0

>  <SCORE.RESTR.norm>
0

>  <SCORE.SYSTEM>
0

>  <SCORE.SYSTEM.CONST>
0

>  <SCORE.SYSTEM.DIHEDRAL>
0

>  <SCORE.SYSTEM.SOLV>
0

>  <SCORE.SYSTEM.norm>
0

>  <SCORE.heavy>
26

>  <SCORE.norm>
-0.687868

>  <RMSD>
4.049

$$$$
ligand
 OpenBabel11021811423D
libRbt.so/2013.1/901 2013/11/27
 26 27  0  0  0  0  0  0  0  0999 V2000
    2.7604  -17.3962  -88.2465 C   0  0  0  0  0  0  0  0  0  0  0  0
    0.5678  -18.3689  -96.6037 C   0  0  0  0  0  0  0  0  0  0  0  0
   -0.2814  -14.1508  -97.5987 P   0  0  2  0  0  0  0  0  0  0  0  0
   -2.7457  -14.2782  -96.3411 P   0  0  2  0  0  0  0  0  0  0  0  0
    1.4373  -18.8996  -93.6181 C   0  0  0  0  0  0  0  0  0  0  0  0
    3.0534  -18.2568  -91.8474 C   0  0  0  0  0  0  0  0  0  0  0  0
    1.7364  -18.5325  -92.1918 C   0  0  0  0  0  0  0  0  0  0  0  0
    0.7432  -18.4044  -91.2164 C   0  0  0  0  0  0  0  0  0  0  0  0
   -0.5531  -18.6290  -91.4327 N   0  0  0  0  0  0  0  0  0  0  0  0
    1.1013  -18.0304  -89.9470 N   0  0  0  0  0  0  0  0  0  0  0  0
    2.4084  -17.7847  -89.6331 C   0  0  0  0  0  0  0  0  0  0  0  0
    3.3925  -17.8870  -90.5635 N   0  0  0  0  0  0  0  0  0  0  0  0
    0.2334  -12.9910  -96.7694 O   0  5  0  0  0  0  0  0  0  0  0  0
   -3.4961  -15.2498  -95.4581 O   0  0  0  0  0  0  0  0  0  0  0  0
    3.9734  -16.6897  -95.6313 S   0  0  0  0  0  0  0  0  0  0  0  0
    3.3420  -17.4900  -94.3597 C   0  0  0  0  0  0  0  0  0  0  0  0
   -0.7748  -13.5520  -98.9132 O   0  0  0  0  0  0  0  0  0  0  0  0
   -3.4660  -14.0383  -97.6522 O   0  5  0  0  0  0  0  0  0  0  0  0
    2.1314  -18.1093  -94.6066 N   0  0  0  0  0  0  0  0  0  0  0  0
   -1.3445  -14.9546  -96.6878 O   0  0  0  0  0  0  0  0  0  0  0  0
   -2.5759  -12.9791  -95.5799 O   0  0  0  0  0  0  0  0  0  0  0  0
    1.7774  -17.8776  -95.9129 C   0  0  1  0  0  0  0  0  0  0  0  0
    2.7453  -17.0990  -96.5667 C   0  0  2  0  0  0  0  0  0  0  0  0
    2.9096  -16.5557  -97.9647 C   0  0  0  0  0  0  0  0  0  0  0  0
    2.1666  -15.2265  -98.1365 C   0  0  0  0  0  0  0  0  0  0  0  0
    0.8573  -15.3429  -97.5933 O   0  0  0  0  0  0  0  0  0  0  0  0
  1 11  1  0  0  0  0
  3 13  1  1  0  0  0
  3 17  2  0  0  0  0
  3 20  1  0  0  0  0
  3 26  1  0  0  0  0
  4 14  1  1  0  0  0
  4 18  1  0  0  0  0
  4 21  2  0  0  0  0
  4 20  1  0  0  0  0
  5 19  1  0  0  0  0
  5  7  1  0  0  0  0
  6  7  2  0  0  0  0
  6 12  1  0  0  0  0
  7  8  1  0  0  0  0
  8  9  1  0  0  0  0
  8 10  2  0  0  0  0
 10 11  1  0  0  0  0
 11 12  2  0  0  0  0
 15 23  1  0  0  0  0
 15 16  1  0  0  0  0
 16 19  1  0  0  0  0
 19 22  1  0  0  0  0
 22  2  1  6  0  0  0
 22 23  1  0  0  0  0
 23 24  1  6  0  0  0
 24 25  1  0  0  0  0
 25 26  1  0  0  0  0
M  CHG  2  13  -1  18  -1
M  END
>  <CHROM.1>
69.60135570,26.33532875,-42.07803497,-178.65876065,-95.49602138,-46.52811140
-178.76127924,-63.29391718,0.67149764,-16.19648614,-95.00405526,1.05878040
-0.40835686,1.91874049

>  <Name>
ligand

>  <RI>
0

>  <Rbt.Current_Directory>
/home/itssahil/PROJECTS/Mol_Feturizer/New_Systems/rnas/2CKY

>  <Rbt.Executable>
rbdock ($Id: //depot/dev/client3/rdock/2013.1/src/exe/rbdock.cxx#4 $)

>  <Rbt.Library>
libRbt.so (2013.1, Build901 2013/11/27)

>  <Rbt.Parameter_File>
/export/apps/rDock/src/rDock_2013.1_src/data/scripts/dock_solv.prm

>  <Rbt.Receptor>
prm/pocket_docking_5.prm

>  <SCORE>
-18.1369

>  <SCORE.INTER>
-13.3291

>  <SCORE.INTER.CONST>
1

>  <SCORE.INTER.POLAR>
0

>  <SCORE.INTER.ROT>
8

>  <SCORE.INTER.SOLV>
10.7049

>  <SCORE.INTER.VDW>
-21.3877

>  <SCORE.INTER.norm>
-0.512657

>  <SCORE.INTRA>
-4.80777

>  <SCORE.INTRA.DIHEDRAL>
-10.8762

>  <SCORE.INTRA.DIHEDRAL.0>
16.4846

>  <SCORE.INTRA.POLAR>
0

>  <SCORE.INTRA.POLAR.0>
0

>  <SCORE.INTRA.REPUL>
0

>  <SCORE.INTRA.REPUL.0>
0

>  <SCORE.INTRA.SOLV>
1.88934

>  <SCORE.INTRA.SOLV.lig_0>
-82.6983

>  <SCORE.INTRA.VDW>
-0.314327

>  <SCORE.INTRA.VDW.0>
-2.11466

>  <SCORE.INTRA.norm>
-0.184914

>  <SCORE.RESTR>
0

>  <SCORE.RESTR.CAVITY>
0

>  <SCORE.RESTR.norm>
0

>  <SCORE.SYSTEM>
0

>  <SCORE.SYSTEM.CONST>
0

>  <SCORE.SYSTEM.DIHEDRAL>
0

>  <SCORE.SYSTEM.SOLV>
0

>  <SCORE.SYSTEM.norm>
0

>  <SCORE.heavy>
26

>  <SCORE.norm>
-0.697572

>  <RMSD>
4.069

$$$$
ligand
 OpenBabel11021811423D
libRbt.so/2013.1/901 2013/11/27
 26 27  0  0  0  0  0  0  0  0999 V2000
   -0.3219  -19.4104  -86.0027 C   0  0  0  0  0  0  0  0  0  0  0  0
    0.0143  -15.9729  -92.4366 C   0  0  0  0  0  0  0  0  0  0  0  0
   -1.2210  -18.0100  -98.0971 P   0  0  2  0  0  0  0  0  0  0  0  0
   -3.5615  -19.0731  -99.1280 P   0  0  2  0  0  0  0  0  0  0  0  0
    2.2684  -17.2562  -90.6411 C   0  0  0  0  0  0  0  0  0  0  0  0
    0.3042  -18.2103  -89.4611 C   0  0  0  0  0  0  0  0  0  0  0  0
    1.6269  -17.7922  -89.3921 C   0  0  0  0  0  0  0  0  0  0  0  0
    2.3181  -17.9372  -88.1857 C   0  0  0  0  0  0  0  0  0  0  0  0
    3.5910  -17.5845  -88.0041 N   0  0  0  0  0  0  0  0  0  0  0  0
    1.6646  -18.4686  -87.1041 N   0  0  0  0  0  0  0  0  0  0  0  0
    0.3566  -18.8531  -87.1970 C   0  0  0  0  0  0  0  0  0  0  0  0
   -0.3355  -18.7375  -88.3598 N   0  0  0  0  0  0  0  0  0  0  0  0
   -0.8083  -17.3871  -99.4161 O   0  5  0  0  0  0  0  0  0  0  0  0
   -3.2787  -18.5349 -100.5125 O   0  0  0  0  0  0  0  0  0  0  0  0
    1.3469  -19.4014  -93.7904 S   0  0  0  0  0  0  0  0  0  0  0  0
    2.1247  -18.9813  -92.4211 C   0  0  0  0  0  0  0  0  0  0  0  0
   -0.4311  -19.3100  -97.9714 O   0  0  0  0  0  0  0  0  0  0  0  0
   -5.0415  -19.0442  -98.8049 O   0  5  0  0  0  0  0  0  0  0  0  0
    1.7259  -17.7767  -91.8733 N   0  0  0  0  0  0  0  0  0  0  0  0
   -2.8327  -18.1014  -98.0956 O   0  0  0  0  0  0  0  0  0  0  0  0
   -3.0258  -20.4883  -99.0504 O   0  0  0  0  0  0  0  0  0  0  0  0
    0.7369  -17.2414  -92.6612 C   0  0  1  0  0  0  0  0  0  0  0  0
    0.4533  -18.0783  -93.7519 C   0  0  2  0  0  0  0  0  0  0  0  0
   -0.5140  -18.0302  -94.9089 C   0  0  0  0  0  0  0  0  0  0  0  0
   -0.2060  -16.8559  -95.8440 C   0  0  0  0  0  0  0  0  0  0  0  0
   -1.1318  -16.8556  -96.9237 O   0  0  0  0  0  0  0  0  0  0  0  0
  1 11  1  0  0  0  0
  3 13  1  6  0  0  0
  3 17  2  0  0  0  0
  3 20  1  0  0  0  0
  3 26  1  0  0  0  0
  4 14  1  6  0  0  0
  4 18  1  0  0  0  0
  4 21  2  0  0  0  0
  4 20  1  0  0  0  0
  5 19  1  0  0  0  0
  5  7  1  0  0  0  0
  6  7  2  0  0  0  0
  6 12  1  0  0  0  0
  7  8  1  0  0  0  0
  8  9  1  0  0  0  0
  8 10  2  0  0  0  0
 10 11  1  0  0  0  0
 11 12  2  0  0  0  0
 15 23  1  0  0  0  0
 15 16  1  0  0  0  0
 16 19  1  0  0  0  0
 19 22  1  0  0  0  0
 22  2  1  1  0  0  0
 22 23  1  0  0  0  0
 23 24  1  1  0  0  0
 24 25  1  0  0  0  0
 25 26  1  0  0  0  0
M  CHG  2  13  -1  18  -1
M  END
>  <CHROM.1>
66.37614471,-83.43181723,-27.76724704,-65.17042091,-115.60091652,179.48701614
-66.74174981,-112.83760900,-0.39312000,-18.29592982,-94.14910783,1.17161373
0.39044302,1.69544894

>  <Name>
ligand

>  <RI>
0

>  <Rbt.Current_Directory>
/home/itssahil/PROJECTS/Mol_Feturizer/New_Systems/rnas/2CKY

>  <Rbt.Executable>
rbdock ($Id: //depot/dev/client3/rdock/2013.1/src/exe/rbdock.cxx#4 $)

>  <Rbt.Library>
libRbt.so (2013.1, Build901 2013/11/27)

>  <Rbt.Parameter_File>
/export/apps/rDock/src/rDock_2013.1_src/data/scripts/dock_solv.prm

>  <Rbt.Receptor>
prm/pocket_docking_6.prm

>  <SCORE>
-24.933

>  <SCORE.INTER>
-19.2059

>  <SCORE.INTER.CONST>
1

>  <SCORE.INTER.POLAR>
0

>  <SCORE.INTER.ROT>
8

>  <SCORE.INTER.SOLV>
27.4175

>  <SCORE.INTER.VDW>
-30.8764

>  <SCORE.INTER.norm>
-0.738688

>  <SCORE.INTRA>
-5.72709

>  <SCORE.INTRA.DIHEDRAL>
-9.37813

>  <SCORE.INTRA.DIHEDRAL.0>
16.4846

>  <SCORE.INTRA.POLAR>
0

>  <SCORE.INTRA.POLAR.0>
0

>  <SCORE.INTRA.REPUL>
0

>  <SCORE.INTRA.REPUL.0>
0

>  <SCORE.INTRA.SOLV>
0.997462

>  <SCORE.INTRA.SOLV.lig_0>
-82.6983

>  <SCORE.INTRA.VDW>
-1.53676

>  <SCORE.INTRA.VDW.0>
-2.11466

>  <SCORE.INTRA.norm>
-0.220273

>  <SCORE.RESTR>
0

>  <SCORE.RESTR.CAVITY>
0

>  <SCORE.RESTR.norm>
0

>  <SCORE.SYSTEM>
0

>  <SCORE.SYSTEM.CONST>
0

>  <SCORE.SYSTEM.DIHEDRAL>
0

>  <SCORE.SYSTEM.SOLV>
0

>  <SCORE.SYSTEM.norm>
0

>  <SCORE.heavy>
26

>  <SCORE.norm>
-0.95896

>  <RMSD>
4.115

$$$$
ligand
 OpenBabel11021811423D
libRbt.so/2013.1/901 2013/11/27
 26 27  0  0  0  0  0  0  0  0999 V2000
    2.7390  -17.5472  -87.9428 C   0  0  0  0  0  0  0  0  0  0  0  0
    1.4233  -18.4977  -95.2975 C   0  0  0  0  0  0  0  0  0  0  0  0
    0.1478  -12.5948  -94.6306 P   0  0  2  0  0  0  0  0  0  0  0  0
   -2.4563  -12.1591  -95.4668 P   0  0  2  0  0  0  0  0  0  0  0  0
   -0.0025  -19.3893  -92.6285 C   0  0  0  0  0  0  0  0  0  0  0  0
    0.2213  -19.1254  -90.1708 C   0  0  0  0  0  0  0  0  0  0  0  0
    0.7411  -18.8653  -91.4322 C   0  0  0  0  0  0  0  0  0  0  0  0
    1.9547  -18.1789  -91.5333 C   0  0  0  0  0  0  0  0  0  0  0  0
    2.5554  -17.8845  -92.6867 N   0  0  0  0  0  0  0  0  0  0  0  0
    2.5837  -17.7669  -90.3870 N   0  0  0  0  0  0  0  0  0  0  0  0
    2.0379  -18.0203  -89.1602 C   0  0  0  0  0  0  0  0  0  0  0  0
    0.8677  -18.6976  -89.0309 N   0  0  0  0  0  0  0  0  0  0  0  0
    0.8423  -12.8011  -93.2990 O   0  5  0  0  0  0  0  0  0  0  0  0
   -2.8054  -13.6160  -95.6721 O   0  0  0  0  0  0  0  0  0  0  0  0
   -1.8573  -16.4989  -94.5191 S   0  0  0  0  0  0  0  0  0  0  0  0
   -1.5760  -17.6159  -93.3660 C   0  0  0  0  0  0  0  0  0  0  0  0
    1.0463  -11.6662  -95.4433 O   0  0  0  0  0  0  0  0  0  0  0  0
   -1.8370  -11.5490  -96.7078 O   0  5  0  0  0  0  0  0  0  0  0  0
   -0.4402  -18.3787  -93.5615 N   0  0  0  0  0  0  0  0  0  0  0  0
   -1.3571  -12.1042  -94.3136 O   0  0  0  0  0  0  0  0  0  0  0  0
   -3.7204  -11.4179  -95.0816 O   0  0  0  0  0  0  0  0  0  0  0  0
    0.1719  -17.9669  -94.7196 C   0  0  1  0  0  0  0  0  0  0  0  0
   -0.5420  -16.9190  -95.3218 C   0  0  2  0  0  0  0  0  0  0  0  0
   -0.3566  -16.0764  -96.5596 C   0  0  0  0  0  0  0  0  0  0  0  0
    0.3972  -14.7802  -96.2433 C   0  0  0  0  0  0  0  0  0  0  0  0
   -0.2930  -14.0685  -95.2236 O   0  0  0  0  0  0  0  0  0  0  0  0
  1 11  1  0  0  0  0
  3 13  1  1  0  0  0
  3 17  2  0  0  0  0
  3 20  1  0  0  0  0
  3 26  1  0  0  0  0
  4 14  1  6  0  0  0
  4 18  1  0  0  0  0
  4 21  2  0  0  0  0
  4 20  1  0  0  0  0
  5 19  1  0  0  0  0
  5  7  1  0  0  0  0
  6  7  2  0  0  0  0
  6 12  1  0  0  0  0
  7  8  1  0  0  0  0
  8  9  1  0  0  0  0
  8 10  2  0  0  0  0
 10 11  1  0  0  0  0
 11 12  2  0  0  0  0
 15 23  1  0  0  0  0
 15 16  1  0  0  0  0
 16 19  1  0  0  0  0
 19 22  1  0  0  0  0
 22  2  1  1  0  0  0
 22 23  1  0  0  0  0
 23 24  1  1  0  0  0
 24 25  1  0  0  0  0
 25 26  1  0  0  0  0
M  CHG  2  13  -1  18  -1
M  END
>  <CHROM.1>
-164.33417923,-80.37595578,120.51169414,72.79771894,86.40286280,-56.16466807
-177.46763388,-101.68272117,-0.20037719,-15.48871885,-93.73605060,-0.78207652
-1.03885005,0.04999635

>  <Name>
ligand

>  <RI>
0

>  <Rbt.Current_Directory>
/home/itssahil/PROJECTS/Mol_Feturizer/New_Systems/rnas/2CKY

>  <Rbt.Executable>
rbdock ($Id: //depot/dev/client3/rdock/2013.1/src/exe/rbdock.cxx#4 $)

>  <Rbt.Library>
libRbt.so (2013.1, Build901 2013/11/27)

>  <Rbt.Parameter_File>
/export/apps/rDock/src/rDock_2013.1_src/data/scripts/dock_solv.prm

>  <Rbt.Receptor>
prm/pocket_docking_8.prm

>  <SCORE>
-17.5501

>  <SCORE.INTER>
-12.3516

>  <SCORE.INTER.CONST>
1

>  <SCORE.INTER.POLAR>
0

>  <SCORE.INTER.ROT>
8

>  <SCORE.INTER.SOLV>
16.5372

>  <SCORE.INTER.VDW>
-22.6801

>  <SCORE.INTER.norm>
-0.47506

>  <SCORE.INTRA>
-5.1985

>  <SCORE.INTRA.DIHEDRAL>
-9.41179

>  <SCORE.INTRA.DIHEDRAL.0>
16.4846

>  <SCORE.INTRA.POLAR>
0

>  <SCORE.INTRA.POLAR.0>
0

>  <SCORE.INTRA.REPUL>
0

>  <SCORE.INTRA.REPUL.0>
0

>  <SCORE.INTRA.SOLV>
2.82566

>  <SCORE.INTRA.SOLV.lig_0>
-82.6983

>  <SCORE.INTRA.VDW>
-1.90544

>  <SCORE.INTRA.VDW.0>
-2.11466

>  <SCORE.INTRA.norm>
-0.199942

>  <SCORE.RESTR>
0

>  <SCORE.RESTR.CAVITY>
0

>  <SCORE.RESTR.norm>
0

>  <SCORE.SYSTEM>
0

>  <SCORE.SYSTEM.CONST>
0

>  <SCORE.SYSTEM.DIHEDRAL>
0

>  <SCORE.SYSTEM.SOLV>
0

>  <SCORE.SYSTEM.norm>
0

>  <SCORE.heavy>
26

>  <SCORE.norm>
-0.675003

>  <RMSD>
4.172

$$$$
ligand
 OpenBabel11021811423D
libRbt.so/2013.1/901 2013/11/27
 26 27  0  0  0  0  0  0  0  0999 V2000
    0.2495  -19.0023  -86.1040 C   0  0  0  0  0  0  0  0  0  0  0  0
    1.1218  -19.0938  -93.4678 C   0  0  0  0  0  0  0  0  0  0  0  0
   -0.4207  -19.1209  -98.7834 P   0  0  2  0  0  0  0  0  0  0  0  0
   -3.0526  -19.2634  -99.6337 P   0  0  2  0  0  0  0  0  0  0  0  0
    2.1752  -17.1843  -91.1884 C   0  0  0  0  0  0  0  0  0  0  0  0
    2.4681  -17.6847  -88.7751 C   0  0  0  0  0  0  0  0  0  0  0  0
    1.6307  -17.6924  -89.8831 C   0  0  0  0  0  0  0  0  0  0  0  0
    0.3085  -18.1185  -89.7263 C   0  0  0  0  0  0  0  0  0  0  0  0
   -0.5885  -18.1569  -90.7121 N   0  0  0  0  0  0  0  0  0  0  0  0
   -0.1148  -18.5335  -88.4902 N   0  0  0  0  0  0  0  0  0  0  0  0
    0.7381  -18.5332  -87.4226 C   0  0  0  0  0  0  0  0  0  0  0  0
    2.0234  -18.1110  -87.5420 N   0  0  0  0  0  0  0  0  0  0  0  0
    0.8610  -18.4648  -99.2577 O   0  5  0  0  0  0  0  0  0  0  0  0
   -3.7001  -19.1320 -100.9939 O   0  0  0  0  0  0  0  0  0  0  0  0
   -0.4993  -15.5257  -93.5261 S   0  0  0  0  0  0  0  0  0  0  0  0
    0.5600  -15.6570  -92.2945 C   0  0  0  0  0  0  0  0  0  0  0  0
   -0.1447  -20.6216  -98.7436 O   0  0  0  0  0  0  0  0  0  0  0  0
   -3.8204  -18.5055  -98.5699 O   0  5  0  0  0  0  0  0  0  0  0  0
    1.1772  -16.8890  -92.1885 N   0  0  0  0  0  0  0  0  0  0  0  0
   -1.6091  -18.5957  -99.7414 O   0  0  0  0  0  0  0  0  0  0  0  0
   -2.9723  -20.7361  -99.2868 O   0  0  0  0  0  0  0  0  0  0  0  0
    0.7155  -17.7001  -93.1958 C   0  0  1  0  0  0  0  0  0  0  0  0
   -0.2196  -17.0260  -93.9968 C   0  0  2  0  0  0  0  0  0  0  0  0
   -1.0291  -17.3822  -95.2193 C   0  0  0  0  0  0  0  0  0  0  0  0
   -0.1658  -18.0820  -96.2744 C   0  0  0  0  0  0  0  0  0  0  0  0
   -0.9467  -18.3272  -97.4376 O   0  0  0  0  0  0  0  0  0  0  0  0
  1 11  1  0  0  0  0
  3 13  1  6  0  0  0
  3 17  2  0  0  0  0
  3 20  1  0  0  0  0
  3 26  1  0  0  0  0
  4 14  1  6  0  0  0
  4 18  1  0  0  0  0
  4 21  2  0  0  0  0
  4 20  1  0  0  0  0
  5 19  1  0  0  0  0
  5  7  1  0  0  0  0
  6  7  2  0  0  0  0
  6 12  1  0  0  0  0
  7  8  1  0  0  0  0
  8  9  1  0  0  0  0
  8 10  2  0  0  0  0
 10 11  1  0  0  0  0
 11 12  2  0  0  0  0
 15 23  1  0  0  0  0
 15 16  1  0  0  0  0
 16 19  1  0  0  0  0
 19 22  1  0  0  0  0
 22  2  1  6  0  0  0
 22 23  1  0  0  0  0
 23 24  1  6  0  0  0
 24 25  1  0  0  0  0
 25 26  1  0  0  0  0
M  CHG  2  13  -1  18  -1
M  END
>  <CHROM.1>
171.28755234,88.29407521,-164.31071591,-151.78614222,133.56724571,-176.54658584
-177.13269768,-53.15508055,-0.42336278,-18.22420095,-94.60973026,1.18381154
0.75771281,1.71622748

>  <Name>
ligand

>  <RI>
0

>  <Rbt.Current_Directory>
/home/itssahil/PROJECTS/Mol_Feturizer/New_Systems/rnas/2CKY

>  <Rbt.Executable>
rbdock ($Id: //depot/dev/client3/rdock/2013.1/src/exe/rbdock.cxx#4 $)

>  <Rbt.Library>
libRbt.so (2013.1, Build901 2013/11/27)

>  <Rbt.Parameter_File>
/export/apps/rDock/src/rDock_2013.1_src/data/scripts/dock_solv.prm

>  <Rbt.Receptor>
prm/pocket_docking_8.prm

>  <SCORE>
-23.872

>  <SCORE.INTER>
-20.2422

>  <SCORE.INTER.CONST>
1

>  <SCORE.INTER.POLAR>
0

>  <SCORE.INTER.ROT>
8

>  <SCORE.INTER.SOLV>
15.3881

>  <SCORE.INTER.VDW>
-27.5575

>  <SCORE.INTER.norm>
-0.778545

>  <SCORE.INTRA>
-3.6298

>  <SCORE.INTRA.DIHEDRAL>
-10.0742

>  <SCORE.INTRA.DIHEDRAL.0>
16.4846

>  <SCORE.INTRA.POLAR>
0

>  <SCORE.INTRA.POLAR.0>
0

>  <SCORE.INTRA.REPUL>
0

>  <SCORE.INTRA.REPUL.0>
0

>  <SCORE.INTRA.SOLV>
5.45412

>  <SCORE.INTRA.SOLV.lig_0>
-82.6983

>  <SCORE.INTRA.VDW>
-1.31977

>  <SCORE.INTRA.VDW.0>
-2.11466

>  <SCORE.INTRA.norm>
-0.139608

>  <SCORE.RESTR>
0

>  <SCORE.RESTR.CAVITY>
0

>  <SCORE.RESTR.norm>
0

>  <SCORE.SYSTEM>
0

>  <SCORE.SYSTEM.CONST>
0

>  <SCORE.SYSTEM.DIHEDRAL>
0

>  <SCORE.SYSTEM.SOLV>
0

>  <SCORE.SYSTEM.norm>
0

>  <SCORE.heavy>
26

>  <SCORE.norm>
-0.918153

>  <RMSD>
4.184

$$$$
ligand
 OpenBabel11021811423D
libRbt.so/2013.1/901 2013/11/27
 26 27  0  0  0  0  0  0  0  0999 V2000
    5.9422  -15.0669  -90.9310 C   0  0  0  0  0  0  0  0  0  0  0  0
   -0.8293  -16.9001  -92.5756 C   0  0  0  0  0  0  0  0  0  0  0  0
   -3.1445  -15.1848  -97.8776 P   0  0  2  0  0  0  0  0  0  0  0  0
   -2.1775  -12.6017  -98.1280 P   0  0  2  0  0  0  0  0  0  0  0  0
    1.7188  -18.7246  -92.2153 C   0  0  0  0  0  0  0  0  0  0  0  0
    3.3631  -17.7243  -90.6482 C   0  0  0  0  0  0  0  0  0  0  0  0
    2.8075  -17.7312  -91.9210 C   0  0  0  0  0  0  0  0  0  0  0  0
    3.3183  -16.8568  -92.8848 C   0  0  0  0  0  0  0  0  0  0  0  0
    2.8749  -16.7831  -94.1401 N   0  0  0  0  0  0  0  0  0  0  0  0
    4.3371  -16.0071  -92.5392 N   0  0  0  0  0  0  0  0  0  0  0  0
    4.8505  -16.0097  -91.2728 C   0  0  0  0  0  0  0  0  0  0  0  0
    4.3839  -16.8580  -90.3202 N   0  0  0  0  0  0  0  0  0  0  0  0
   -1.8338  -15.5062  -98.5681 O   0  5  0  0  0  0  0  0  0  0  0  0
   -1.3890  -12.9395  -99.3733 O   0  0  0  0  0  0  0  0  0  0  0  0
    0.3097  -18.6863  -95.8734 S   0  0  0  0  0  0  0  0  0  0  0  0
    1.3024  -19.0689  -94.6387 C   0  0  0  0  0  0  0  0  0  0  0  0
   -4.1747  -16.1624  -98.4370 O   0  0  0  0  0  0  0  0  0  0  0  0
   -1.3640  -12.8253  -96.8695 O   0  5  0  0  0  0  0  0  0  0  0  0
    0.9829  -18.4759  -93.4319 N   0  0  0  0  0  0  0  0  0  0  0  0
   -3.4145  -13.6057  -98.0764 O   0  0  0  0  0  0  0  0  0  0  0  0
   -2.6230  -11.1568  -98.2260 O   0  0  0  0  0  0  0  0  0  0  0  0
   -0.1347  -17.6975  -93.6067 C   0  0  1  0  0  0  0  0  0  0  0  0
   -0.5861  -17.7551  -94.9346 C   0  0  2  0  0  0  0  0  0  0  0  0
   -1.7372  -17.1457  -95.6964 C   0  0  0  0  0  0  0  0  0  0  0  0
   -1.7319  -15.6174  -95.5849 C   0  0  0  0  0  0  0  0  0  0  0  0
   -2.8705  -15.0903  -96.2547 O   0  0  0  0  0  0  0  0  0  0  0  0
  1 11  1  0  0  0  0
  3 13  1  6  0  0  0
  3 17  2  0  0  0  0
  3 20  1  0  0  0  0
  3 26  1  0  0  0  0
  4 14  1  6  0  0  0
  4 18  1  0  0  0  0
  4 21  2  0  0  0  0
  4 20  1  0  0  0  0
  5 19  1  0  0  0  0
  5  7  1  0  0  0  0
  6  7  2  0  0  0  0
  6 12  1  0  0  0  0
  7  8  1  0  0  0  0
  8  9  1  0  0  0  0
  8 10  2  0  0  0  0
 10 11  1  0  0  0  0
 11 12  2  0  0  0  0
 15 23  1  0  0  0  0
 15 16  1  0  0  0  0
 16 19  1  0  0  0  0
 19 22  1  0  0  0  0
 22  2  1  1  0  0  0
 22 23  1  0  0  0  0
 23 24  1  1  0  0  0
 24 25  1  0  0  0  0
 25 26  1  0  0  0  0
M  CHG  2  13  -1  18  -1
M  END
>  <CHROM.1>
-33.12196499,94.39509700,166.30382275,65.42823762,-124.35306476,-176.88920073
-65.41985381,-17.81212565,-0.07147166,-15.89629444,-95.26984466,-0.57055115
-0.67005447,-0.31152445

>  <Name>
ligand

>  <RI>
0

>  <Rbt.Current_Directory>
/home/itssahil/PROJECTS/Mol_Feturizer/New_Systems/rnas/2CKY

>  <Rbt.Executable>
rbdock ($Id: //depot/dev/client3/rdock/2013.1/src/exe/rbdock.cxx#4 $)

>  <Rbt.Library>
libRbt.so (2013.1, Build901 2013/11/27)

>  <Rbt.Parameter_File>
/export/apps/rDock/src/rDock_2013.1_src/data/scripts/dock_solv.prm

>  <Rbt.Receptor>
prm/pocket_docking_5.prm

>  <SCORE>
-15.4368

>  <SCORE.INTER>
-12.874

>  <SCORE.INTER.CONST>
1

>  <SCORE.INTER.POLAR>
0

>  <SCORE.INTER.ROT>
8

>  <SCORE.INTER.SOLV>
16.7234

>  <SCORE.INTER.VDW>
-23.0904

>  <SCORE.INTER.norm>
-0.495152

>  <SCORE.INTRA>
-2.56285

>  <SCORE.INTRA.DIHEDRAL>
-8.7741

>  <SCORE.INTRA.DIHEDRAL.0>
16.4846

>  <SCORE.INTRA.POLAR>
0

>  <SCORE.INTRA.POLAR.0>
0

>  <SCORE.INTRA.REPUL>
0

>  <SCORE.INTRA.REPUL.0>
0

>  <SCORE.INTRA.SOLV>
6.25821

>  <SCORE.INTRA.SOLV.lig_0>
-82.6983

>  <SCORE.INTRA.VDW>
-1.30491

>  <SCORE.INTRA.VDW.0>
-2.11466

>  <SCORE.INTRA.norm>
-0.0985713

>  <SCORE.RESTR>
0

>  <SCORE.RESTR.CAVITY>
0

>  <SCORE.RESTR.norm>
0

>  <SCORE.SYSTEM>
0

>  <SCORE.SYSTEM.CONST>
0

>  <SCORE.SYSTEM.DIHEDRAL>
0

>  <SCORE.SYSTEM.SOLV>
0

>  <SCORE.SYSTEM.norm>
0

>  <SCORE.heavy>
26

>  <SCORE.norm>
-0.593724

>  <RMSD>
4.363

$$$$
ligand
 OpenBabel11021811423D
libRbt.so/2013.1/901 2013/11/27
 26 27  0  0  0  0  0  0  0  0999 V2000
    3.6500  -16.7839  -89.2449 C   0  0  0  0  0  0  0  0  0  0  0  0
    1.3364  -17.4264  -97.7374 C   0  0  0  0  0  0  0  0  0  0  0  0
    3.2850  -12.5481  -99.2450 P   0  0  2  0  0  0  0  0  0  0  0  0
    4.0067  -12.0761  -96.6131 P   0  0  2  0  0  0  0  0  0  0  0  0
    1.8109  -17.5460  -94.6210 C   0  0  0  0  0  0  0  0  0  0  0  0
    2.7630  -18.3721  -92.4829 C   0  0  0  0  0  0  0  0  0  0  0  0
    2.2588  -17.2999  -93.2077 C   0  0  0  0  0  0  0  0  0  0  0  0
    2.2401  -16.0341  -92.6148 C   0  0  0  0  0  0  0  0  0  0  0  0
    1.7928  -14.9313  -93.2161 N   0  0  0  0  0  0  0  0  0  0  0  0
    2.7009  -15.8935  -91.3313 N   0  0  0  0  0  0  0  0  0  0  0  0
    3.1731  -16.9710  -90.6360 C   0  0  0  0  0  0  0  0  0  0  0  0
    3.2168  -18.2096  -91.1915 N   0  0  0  0  0  0  0  0  0  0  0  0
    3.7566  -12.1265 -100.6227 O   0  5  0  0  0  0  0  0  0  0  0  0
    4.3157  -13.5309  -96.3399 O   0  0  0  0  0  0  0  0  0  0  0  0
    4.9524  -16.3731  -96.6518 S   0  0  0  0  0  0  0  0  0  0  0  0
    4.0487  -16.7554  -95.3505 C   0  0  0  0  0  0  0  0  0  0  0  0
    1.7936  -12.2287  -99.1862 O   0  0  0  0  0  0  0  0  0  0  0  0
    2.5546  -11.7473  -96.3322 O   0  5  0  0  0  0  0  0  0  0  0  0
    2.7500  -17.1322  -95.6360 N   0  0  0  0  0  0  0  0  0  0  0  0
    4.2542  -11.8344  -98.1692 O   0  0  0  0  0  0  0  0  0  0  0  0
    4.9220  -11.2273  -95.7543 O   0  0  0  0  0  0  0  0  0  0  0  0
    2.5679  -17.0860  -96.9962 C   0  0  1  0  0  0  0  0  0  0  0  0
    3.7422  -16.6783  -97.6483 C   0  0  2  0  0  0  0  0  0  0  0  0
    4.1430  -16.4646  -99.0871 C   0  0  0  0  0  0  0  0  0  0  0  0
    3.4480  -15.2353  -99.6822 C   0  0  0  0  0  0  0  0  0  0  0  0
    3.8294  -14.0762  -98.9516 O   0  0  0  0  0  0  0  0  0  0  0  0
  1 11  1  0  0  0  0
  3 13  1  6  0  0  0
  3 17  2  0  0  0  0
  3 20  1  0  0  0  0
  3 26  1  0  0  0  0
  4 14  1  1  0  0  0
  4 18  1  0  0  0  0
  4 21  2  0  0  0  0
  4 20  1  0  0  0  0
  5 19  1  0  0  0  0
  5  7  1  0  0  0  0
  6  7  2  0  0  0  0
  6 12  1  0  0  0  0
  7  8  1  0  0  0  0
  8  9  1  0  0  0  0
  8 10  2  0  0  0  0
 10 11  1  0  0  0  0
 11 12  2  0  0  0  0
 15 23  1  0  0  0  0
 15 16  1  0  0  0  0
 16 19  1  0  0  0  0
 19 22  1  0  0  0  0
 22  2  1  6  0  0  0
 22 23  1  0  0  0  0
 23 24  1  6  0  0  0
 24 25  1  0  0  0  0
 25 26  1  0  0  0  0
M  CHG  2  13  -1  18  -1
M  END
>  <CHROM.1>
179.60939253,10.75422554,-101.06520461,67.08225724,-110.21434354,61.13787866
-178.73541077,-64.07469551,3.33418688,-14.91776513,-96.04905641,-2.26736804
-1.44017711,-1.69844187

>  <Name>
ligand

>  <RI>
0

>  <Rbt.Current_Directory>
/home/itssahil/PROJECTS/Mol_Feturizer/New_Systems/rnas/2CKY

>  <Rbt.Executable>
rbdock ($Id: //depot/dev/client3/rdock/2013.1/src/exe/rbdock.cxx#4 $)

>  <Rbt.Library>
libRbt.so (2013.1, Build901 2013/11/27)

>  <Rbt.Parameter_File>
/export/apps/rDock/src/rDock_2013.1_src/data/scripts/dock_solv.prm

>  <Rbt.Receptor>
prm/pocket_docking_5.prm

>  <SCORE>
-20.0964

>  <SCORE.INTER>
-11.5659

>  <SCORE.INTER.CONST>
1

>  <SCORE.INTER.POLAR>
0

>  <SCORE.INTER.ROT>
8

>  <SCORE.INTER.SOLV>
9.43997

>  <SCORE.INTER.VDW>
-19.7906

>  <SCORE.INTER.norm>
-0.444841

>  <SCORE.INTRA>
-8.53056

>  <SCORE.INTRA.DIHEDRAL>
-11.8496

>  <SCORE.INTRA.DIHEDRAL.0>
16.4846

>  <SCORE.INTRA.POLAR>
0

>  <SCORE.INTRA.POLAR.0>
0

>  <SCORE.INTRA.REPUL>
0

>  <SCORE.INTRA.REPUL.0>
0

>  <SCORE.INTRA.SOLV>
-0.216086

>  <SCORE.INTRA.SOLV.lig_0>
-82.6983

>  <SCORE.INTRA.VDW>
-2.49769

>  <SCORE.INTRA.VDW.0>
-2.11466

>  <SCORE.INTRA.norm>
-0.328098

>  <SCORE.RESTR>
0

>  <SCORE.RESTR.CAVITY>
0

>  <SCORE.RESTR.norm>
0

>  <SCORE.SYSTEM>
0

>  <SCORE.SYSTEM.CONST>
0

>  <SCORE.SYSTEM.DIHEDRAL>
0

>  <SCORE.SYSTEM.SOLV>
0

>  <SCORE.SYSTEM.norm>
0

>  <SCORE.heavy>
26

>  <SCORE.norm>
-0.77294

>  <RMSD>
4.419

$$$$
ligand
 OpenBabel11021811423D
libRbt.so/2013.1/901 2013/11/27
 26 27  0  0  0  0  0  0  0  0999 V2000
    0.9409  -18.9515  -86.9750 C   0  0  0  0  0  0  0  0  0  0  0  0
   -1.5722  -16.6214  -94.7194 C   0  0  0  0  0  0  0  0  0  0  0  0
   -2.4409  -17.3307  -98.5880 P   0  0  2  0  0  0  0  0  0  0  0  0
   -3.7858  -19.7512  -98.5325 P   0  0  2  0  0  0  0  0  0  0  0  0
    0.0966  -16.4217  -92.0498 C   0  0  0  0  0  0  0  0  0  0  0  0
   -0.6876  -17.6891  -90.0650 C   0  0  0  0  0  0  0  0  0  0  0  0
    0.3629  -17.0498  -90.7106 C   0  0  0  0  0  0  0  0  0  0  0  0
    1.6286  -17.0647  -90.1172 C   0  0  0  0  0  0  0  0  0  0  0  0
    2.7121  -16.4976  -90.6483 N   0  0  0  0  0  0  0  0  0  0  0  0
    1.7896  -17.6918  -88.9088 N   0  0  0  0  0  0  0  0  0  0  0  0
    0.7326  -18.2954  -88.2879 C   0  0  0  0  0  0  0  0  0  0  0  0
   -0.5048  -18.3094  -88.8476 N   0  0  0  0  0  0  0  0  0  0  0  0
   -3.4897  -16.3139  -98.1828 O   0  5  0  0  0  0  0  0  0  0  0  0
   -5.1094  -19.0435  -98.7172 O   0  0  0  0  0  0  0  0  0  0  0  0
    1.4734  -19.0846  -94.5760 S   0  0  0  0  0  0  0  0  0  0  0  0
    1.3959  -18.1849  -93.2193 C   0  0  0  0  0  0  0  0  0  0  0  0
   -2.4152  -17.3349 -100.1142 O   0  0  0  0  0  0  0  0  0  0  0  0
   -3.9106  -20.9448  -97.6077 O   0  5  0  0  0  0  0  0  0  0  0  0
    0.3543  -17.2773  -93.1834 N   0  0  0  0  0  0  0  0  0  0  0  0
   -2.7988  -18.7125  -97.8340 O   0  0  0  0  0  0  0  0  0  0  0  0
   -3.2840  -20.1822  -99.8957 O   0  0  0  0  0  0  0  0  0  0  0  0
   -0.3664  -17.3889  -94.3468 C   0  0  1  0  0  0  0  0  0  0  0  0
    0.1784  -18.3749  -95.1844 C   0  0  2  0  0  0  0  0  0  0  0  0
   -0.1771  -18.9389  -96.5379 C   0  0  0  0  0  0  0  0  0  0  0  0
    0.0536  -17.9086  -97.6486 C   0  0  0  0  0  0  0  0  0  0  0  0
   -1.0673  -17.0366  -97.7252 O   0  0  0  0  0  0  0  0  0  0  0  0
  1 11  1  0  0  0  0
  3 13  1  1  0  0  0
  3 17  2  0  0  0  0
  3 20  1  0  0  0  0
  3 26  1  0  0  0  0
  4 14  1  6  0  0  0
  4 18  1  0  0  0  0
  4 21  2  0  0  0  0
  4 20  1  0  0  0  0
  5 19  1  0  0  0  0
  5  7  1  0  0  0  0
  6  7  2  0  0  0  0
  6 12  1  0  0  0  0
  7  8  1  0  0  0  0
  8  9  1  0  0  0  0
  8 10  2  0  0  0  0
 10 11  1  0  0  0  0
 11 12  2  0  0  0  0
 15 23  1  0  0  0  0
 15 16  1  0  0  0  0
 16 19  1  0  0  0  0
 19 22  1  0  0  0  0
 22  2  1  1  0  0  0
 22 23  1  0  0  0  0
 23 24  1  1  0  0  0
 24 25  1  0  0  0  0
 25 26  1  0  0  0  0
M  CHG  2  13  -1  18  -1
M  END
>  <CHROM.1>
88.67419873,-36.26965825,-92.05525505,-60.86598666,-111.63272593,-82.40848597
-85.72958948,168.38245208,-0.97732036,-18.12935505,-94.91794804,1.05998338
0.55727933,1.76301205

>  <Name>
ligand

>  <RI>
0

>  <Rbt.Current_Directory>
/home/itssahil/PROJECTS/Mol_Feturizer/New_Systems/rnas/2CKY

>  <Rbt.Executable>
rbdock ($Id: //depot/dev/client3/rdock/2013.1/src/exe/rbdock.cxx#4 $)

>  <Rbt.Library>
libRbt.so (2013.1, Build901 2013/11/27)

>  <Rbt.Parameter_File>
/export/apps/rDock/src/rDock_2013.1_src/data/scripts/dock_solv.prm

>  <Rbt.Receptor>
prm/pocket_docking_7.prm

>  <SCORE>
-23.2817

>  <SCORE.INTER>
-19.2915

>  <SCORE.INTER.CONST>
1

>  <SCORE.INTER.POLAR>
0

>  <SCORE.INTER.ROT>
8

>  <SCORE.INTER.SOLV>
20.9905

>  <SCORE.INTER.VDW>
-28.7912

>  <SCORE.INTER.norm>
-0.741982

>  <SCORE.INTRA>
-3.99022

>  <SCORE.INTRA.DIHEDRAL>
-6.3619

>  <SCORE.INTRA.DIHEDRAL.0>
16.4846

>  <SCORE.INTRA.POLAR>
0

>  <SCORE.INTRA.POLAR.0>
0

>  <SCORE.INTRA.REPUL>
0

>  <SCORE.INTRA.REPUL.0>
0

>  <SCORE.INTRA.SOLV>
2.22943

>  <SCORE.INTRA.SOLV.lig_0>
-82.6983

>  <SCORE.INTRA.VDW>
-1.92398

>  <SCORE.INTRA.VDW.0>
-2.11466

>  <SCORE.INTRA.norm>
-0.15347

>  <SCORE.RESTR>
0

>  <SCORE.RESTR.CAVITY>
0

>  <SCORE.RESTR.norm>
0

>  <SCORE.SYSTEM>
0

>  <SCORE.SYSTEM.CONST>
0

>  <SCORE.SYSTEM.DIHEDRAL>
0

>  <SCORE.SYSTEM.SOLV>
0

>  <SCORE.SYSTEM.norm>
0

>  <SCORE.heavy>
26

>  <SCORE.norm>
-0.895452

>  <RMSD>
4.460

$$$$
ligand
 OpenBabel11021811423D
libRbt.so/2013.1/901 2013/11/27
 26 27  0  0  0  0  0  0  0  0999 V2000
    1.0434  -18.7346  -87.4471 C   0  0  0  0  0  0  0  0  0  0  0  0
    2.2529  -14.4842  -91.7139 C   0  0  0  0  0  0  0  0  0  0  0  0
    0.3293  -17.9837  -95.1923 P   0  0  2  0  0  0  0  0  0  0  0  0
   -0.5711  -19.1224  -97.5510 P   0  0  2  0  0  0  0  0  0  0  0  0
    4.8710  -15.8027  -90.5484 C   0  0  0  0  0  0  0  0  0  0  0  0
    3.7584  -16.3901  -88.4089 C   0  0  0  0  0  0  0  0  0  0  0  0
    3.8687  -16.6129  -89.7753 C   0  0  0  0  0  0  0  0  0  0  0  0
    3.0105  -17.5363  -90.3796 C   0  0  0  0  0  0  0  0  0  0  0  0
    3.0148  -17.8228  -91.6818 N   0  0  0  0  0  0  0  0  0  0  0  0
    2.1012  -18.2068  -89.6032 N   0  0  0  0  0  0  0  0  0  0  0  0
    2.0294  -17.9807  -88.2575 C   0  0  0  0  0  0  0  0  0  0  0  0
    2.8403  -17.0791  -87.6457 N   0  0  0  0  0  0  0  0  0  0  0  0
    0.9252  -19.2677  -94.6499 O   0  5  0  0  0  0  0  0  0  0  0  0
   -0.2347  -20.4912  -97.0034 O   0  0  0  0  0  0  0  0  0  0  0  0
    4.7639  -15.7026  -94.4659 S   0  0  0  0  0  0  0  0  0  0  0  0
    5.3551  -15.9967  -92.9759 C   0  0  0  0  0  0  0  0  0  0  0  0
   -1.0338  -17.8276  -94.5232 O   0  0  0  0  0  0  0  0  0  0  0  0
   -0.2705  -19.0200  -99.0325 O   0  5  0  0  0  0  0  0  0  0  0  0
    4.5389  -15.5910  -91.9370 N   0  0  0  0  0  0  0  0  0  0  0  0
    0.3743  -18.0792  -96.8032 O   0  0  0  0  0  0  0  0  0  0  0  0
   -2.0378  -18.8518  -97.2840 O   0  0  0  0  0  0  0  0  0  0  0  0
    3.4008  -15.0325  -92.4645 C   0  0  1  0  0  0  0  0  0  0  0  0
    3.4324  -15.0543  -93.8677 C   0  0  2  0  0  0  0  0  0  0  0  0
    2.4920  -14.6133  -94.9620 C   0  0  0  0  0  0  0  0  0  0  0  0
    1.1816  -15.4068  -94.9235 C   0  0  0  0  0  0  0  0  0  0  0  0
    1.4630  -16.7924  -95.0777 O   0  0  0  0  0  0  0  0  0  0  0  0
  1 11  1  0  0  0  0
  3 13  1  1  0  0  0
  3 17  2  0  0  0  0
  3 20  1  0  0  0  0
  3 26  1  0  0  0  0
  4 14  1  1  0  0  0
  4 18  1  0  0  0  0
  4 21  2  0  0  0  0
  4 20  1  0  0  0  0
  5 19  1  0  0  0  0
  5  7  1  0  0  0  0
  6  7  2  0  0  0  0
  6 12  1  0  0  0  0
  7  8  1  0  0  0  0
  8  9  1  0  0  0  0
  8 10  2  0  0  0  0
 10 11  1  0  0  0  0
 11 12  2  0  0  0  0
 15 23  1  0  0  0  0
 15 16  1  0  0  0  0
 16 19  1  0  0  0  0
 19 22  1  0  0  0  0
 22  2  1  1  0  0  0
 22 23  1  0  0  0  0
 23 24  1  1  0  0  0
 24 25  1  0  0  0  0
 25 26  1  0  0  0  0
M  CHG  2  13  -1  18  -1
M  END
>  <CHROM.1>
68.99762359,-121.12717039,-152.00317171,-57.82989489,115.91515590,-59.16014324
-175.75620034,-151.52705842,1.85333712,-17.25946253,-93.50827367,0.94318152
0.72807518,1.74539373

>  <Name>
ligand

>  <RI>
0

>  <Rbt.Current_Directory>
/home/itssahil/PROJECTS/Mol_Feturizer/New_Systems/rnas/2CKY

>  <Rbt.Executable>
rbdock ($Id: //depot/dev/client3/rdock/2013.1/src/exe/rbdock.cxx#4 $)

>  <Rbt.Library>
libRbt.so (2013.1, Build901 2013/11/27)

>  <Rbt.Parameter_File>
/export/apps/rDock/src/rDock_2013.1_src/data/scripts/dock_solv.prm

>  <Rbt.Receptor>
prm/pocket_docking_7.prm

>  <SCORE>
-22.3311

>  <SCORE.INTER>
-17.5742

>  <SCORE.INTER.CONST>
1

>  <SCORE.INTER.POLAR>
0

>  <SCORE.INTER.ROT>
8

>  <SCORE.INTER.SOLV>
15.7102

>  <SCORE.INTER.VDW>
-25.8862

>  <SCORE.INTER.norm>
-0.675929

>  <SCORE.INTRA>
-4.76685

>  <SCORE.INTRA.DIHEDRAL>
-10.2468

>  <SCORE.INTRA.DIHEDRAL.0>
16.4846

>  <SCORE.INTRA.POLAR>
0

>  <SCORE.INTRA.POLAR.0>
0

>  <SCORE.INTRA.REPUL>
0

>  <SCORE.INTRA.REPUL.0>
0

>  <SCORE.INTRA.SOLV>
5.49761

>  <SCORE.INTRA.SOLV.lig_0>
-82.6983

>  <SCORE.INTRA.VDW>
-2.39228

>  <SCORE.INTRA.VDW.0>
-2.11466

>  <SCORE.INTRA.norm>
-0.18334

>  <SCORE.RESTR>
0.00988064

>  <SCORE.RESTR.CAVITY>
0.00988064

>  <SCORE.RESTR.norm>
0.000380024

>  <SCORE.SYSTEM>
0

>  <SCORE.SYSTEM.CONST>
0

>  <SCORE.SYSTEM.DIHEDRAL>
0

>  <SCORE.SYSTEM.SOLV>
0

>  <SCORE.SYSTEM.norm>
0

>  <SCORE.heavy>
26

>  <SCORE.norm>
-0.85889

>  <RMSD>
4.609

$$$$
ligand
 OpenBabel11021811423D
libRbt.so/2013.1/901 2013/11/27
 26 27  0  0  0  0  0  0  0  0999 V2000
    0.3224  -18.3758  -89.6506 C   0  0  0  0  0  0  0  0  0  0  0  0
    0.6597  -17.0211  -98.0424 C   0  0  0  0  0  0  0  0  0  0  0  0
   -3.4410  -15.1934  -98.1631 P   0  0  2  0  0  0  0  0  0  0  0  0
   -2.3960  -12.7831  -97.2861 P   0  0  2  0  0  0  0  0  0  0  0  0
    1.4918  -18.2567  -95.2617 C   0  0  0  0  0  0  0  0  0  0  0  0
    1.8341  -19.1207  -92.9602 C   0  0  0  0  0  0  0  0  0  0  0  0
    1.1324  -18.2679  -93.8024 C   0  0  0  0  0  0  0  0  0  0  0  0
    0.1652  -17.4217  -93.2521 C   0  0  0  0  0  0  0  0  0  0  0  0
   -0.5603  -16.5538  -93.9579 N   0  0  0  0  0  0  0  0  0  0  0  0
   -0.0745  -17.4735  -91.9033 N   0  0  0  0  0  0  0  0  0  0  0  0
    0.6184  -18.3372  -91.1027 C   0  0  0  0  0  0  0  0  0  0  0  0
    1.5737  -19.1603  -91.6072 N   0  0  0  0  0  0  0  0  0  0  0  0
   -4.2572  -14.7668  -99.3672 O   0  5  0  0  0  0  0  0  0  0  0  0
   -3.6997  -12.1968  -97.7795 O   0  0  0  0  0  0  0  0  0  0  0  0
   -1.5224  -20.0942  -96.9666 S   0  0  0  0  0  0  0  0  0  0  0  0
   -0.3792  -19.7798  -95.8483 C   0  0  0  0  0  0  0  0  0  0  0  0
   -4.4157  -15.2738  -96.9912 O   0  0  0  0  0  0  0  0  0  0  0  0
   -1.2142  -11.9039  -97.6409 O   0  5  0  0  0  0  0  0  0  0  0  0
    0.4477  -18.7136  -96.1474 N   0  0  0  0  0  0  0  0  0  0  0  0
   -2.1969  -14.1718  -98.0431 O   0  0  0  0  0  0  0  0  0  0  0  0
   -2.4951  -12.9641  -95.7851 O   0  0  0  0  0  0  0  0  0  0  0  0
    0.0614  -18.1825  -97.3533 C   0  0  1  0  0  0  0  0  0  0  0  0
   -1.0330  -18.8826  -97.8848 C   0  0  2  0  0  0  0  0  0  0  0  0
   -1.8754  -18.7570  -99.1302 C   0  0  0  0  0  0  0  0  0  0  0  0
   -3.0396  -17.7830  -98.9193 C   0  0  0  0  0  0  0  0  0  0  0  0
   -2.5274  -16.4984  -98.5872 O   0  0  0  0  0  0  0  0  0  0  0  0
  1 11  1  0  0  0  0
  3 13  1  6  0  0  0
  3 17  2  0  0  0  0
  3 20  1  0  0  0  0
  3 26  1  0  0  0  0
  4 14  1  6  0  0  0
  4 18  1  0  0  0  0
  4 21  2  0  0  0  0
  4 20  1  0  0  0  0
  5 19  1  0  0  0  0
  5  7  1  0  0  0  0
  6  7  2  0  0  0  0
  6 12  1  0  0  0  0
  7  8  1  0  0  0  0
  8  9  1  0  0  0  0
  8 10  2  0  0  0  0
 10 11  1  0  0  0  0
 11 12  2  0  0  0  0
 15 23  1  0  0  0  0
 15 16  1  0  0  0  0
 16 19  1  0  0  0  0
 19 22  1  0  0  0  0
 22  2  1  1  0  0  0
 22 23  1  0  0  0  0
 23 24  1  1  0  0  0
 24 25  1  0  0  0  0
 25 26  1  0  0  0  0
M  CHG  2  13  -1  18  -1
M  END
>  <CHROM.1>
84.46199610,-39.44864769,115.52146168,-45.37977808,92.44492112,59.98502323
-174.86038864,-66.64387567,-1.30901181,-16.60305298,-96.19021981,-0.10728659
-1.07934237,0.61547195

>  <Name>
ligand

>  <RI>
0

>  <Rbt.Current_Directory>
/home/itssahil/PROJECTS/Mol_Feturizer/New_Systems/rnas/2CKY

>  <Rbt.Executable>
rbdock ($Id: //depot/dev/client3/rdock/2013.1/src/exe/rbdock.cxx#4 $)

>  <Rbt.Library>
libRbt.so (2013.1, Build901 2013/11/27)

>  <Rbt.Parameter_File>
/export/apps/rDock/src/rDock_2013.1_src/data/scripts/dock_solv.prm

>  <Rbt.Receptor>
prm/pocket_docking_5.prm

>  <SCORE>
-16.7973

>  <SCORE.INTER>
-10.142

>  <SCORE.INTER.CONST>
1

>  <SCORE.INTER.POLAR>
0

>  <SCORE.INTER.ROT>
8

>  <SCORE.INTER.SOLV>
15.6161

>  <SCORE.INTER.VDW>
-20.9

>  <SCORE.INTER.norm>
-0.390076

>  <SCORE.INTRA>
-6.6553

>  <SCORE.INTRA.DIHEDRAL>
-10.4013

>  <SCORE.INTRA.DIHEDRAL.0>
16.4846

>  <SCORE.INTRA.POLAR>
0

>  <SCORE.INTRA.POLAR.0>
0

>  <SCORE.INTRA.REPUL>
0

>  <SCORE.INTRA.REPUL.0>
0

>  <SCORE.INTRA.SOLV>
1.30297

>  <SCORE.INTRA.SOLV.lig_0>
-82.6983

>  <SCORE.INTRA.VDW>
-2.10613

>  <SCORE.INTRA.VDW.0>
-2.11466

>  <SCORE.INTRA.norm>
-0.255973

>  <SCORE.RESTR>
0

>  <SCORE.RESTR.CAVITY>
0

>  <SCORE.RESTR.norm>
0

>  <SCORE.SYSTEM>
0

>  <SCORE.SYSTEM.CONST>
0

>  <SCORE.SYSTEM.DIHEDRAL>
0

>  <SCORE.SYSTEM.SOLV>
0

>  <SCORE.SYSTEM.norm>
0

>  <SCORE.heavy>
26

>  <SCORE.norm>
-0.646049

>  <RMSD>
4.691

$$$$
ligand
 OpenBabel11021811423D
libRbt.so/2013.1/901 2013/11/27
 26 27  0  0  0  0  0  0  0  0999 V2000
    2.6751  -17.7979  -88.1853 C   0  0  0  0  0  0  0  0  0  0  0  0
    4.0649  -12.5360  -95.0000 C   0  0  0  0  0  0  0  0  0  0  0  0
    3.6901  -12.1429  -99.3002 P   0  0  2  0  0  0  0  0  0  0  0  0
    3.8309   -9.3841  -99.0998 P   0  0  2  0  0  0  0  0  0  0  0  0
    4.3043  -14.1624  -92.3077 C   0  0  0  0  0  0  0  0  0  0  0  0
    4.6231  -15.3010  -90.1254 C   0  0  0  0  0  0  0  0  0  0  0  0
    3.8467  -15.1447  -91.2663 C   0  0  0  0  0  0  0  0  0  0  0  0
    2.6517  -15.8623  -91.3725 C   0  0  0  0  0  0  0  0  0  0  0  0
    1.8203  -15.7839  -92.4119 N   0  0  0  0  0  0  0  0  0  0  0  0
    2.2932  -16.7118  -90.3580 N   0  0  0  0  0  0  0  0  0  0  0  0
    3.0877  -16.8595  -89.2562 C   0  0  0  0  0  0  0  0  0  0  0  0
    4.2465  -16.1645  -89.1191 N   0  0  0  0  0  0  0  0  0  0  0  0
    3.7766  -13.0834 -100.4859 O   0  5  0  0  0  0  0  0  0  0  0  0
    4.0844   -9.4861  -97.6125 O   0  0  0  0  0  0  0  0  0  0  0  0
    4.4550  -16.4010  -95.5224 S   0  0  0  0  0  0  0  0  0  0  0  0
    4.4737  -16.0294  -93.9357 C   0  0  0  0  0  0  0  0  0  0  0  0
    2.2269  -12.1348  -98.8654 O   0  0  0  0  0  0  0  0  0  0  0  0
    2.3524   -9.2736  -99.4119 O   0  5  0  0  0  0  0  0  0  0  0  0
    4.3505  -14.6821  -93.6534 N   0  0  0  0  0  0  0  0  0  0  0  0
    4.3522  -10.7418  -99.7526 O   0  0  0  0  0  0  0  0  0  0  0  0
    4.5795   -8.1769  -99.6270 O   0  0  0  0  0  0  0  0  0  0  0  0
    4.2346  -13.9940  -94.8361 C   0  0  1  0  0  0  0  0  0  0  0  0
    4.2770  -14.8680  -95.9338 C   0  0  2  0  0  0  0  0  0  0  0  0
    4.1847  -14.7041  -97.4308 C   0  0  0  0  0  0  0  0  0  0  0  0
    5.3425  -13.8579  -97.9709 C   0  0  0  0  0  0  0  0  0  0  0  0
    4.8820  -12.5378  -98.2321 O   0  0  0  0  0  0  0  0  0  0  0  0
  1 11  1  0  0  0  0
  3 13  1  6  0  0  0
  3 17  2  0  0  0  0
  3 20  1  0  0  0  0
  3 26  1  0  0  0  0
  4 14  1  1  0  0  0
  4 18  1  0  0  0  0
  4 21  2  0  0  0  0
  4 20  1  0  0  0  0
  5 19  1  0  0  0  0
  5  7  1  0  0  0  0
  6  7  2  0  0  0  0
  6 12  1  0  0  0  0
  7  8  1  0  0  0  0
  8  9  1  0  0  0  0
  8 10  2  0  0  0  0
 10 11  1  0  0  0  0
 11 12  2  0  0  0  0
 15 23  1  0  0  0  0
 15 16  1  0  0  0  0
 16 19  1  0  0  0  0
 19 22  1  0  0  0  0
 22  2  1  1  0  0  0
 22 23  1  0  0  0  0
 23 24  1  1  0  0  0
 24 25  1  0  0  0  0
 25 26  1  0  0  0  0
M  CHG  2  13  -1  18  -1
M  END
>  <CHROM.1>
150.18653007,-23.63321899,129.52137794,60.72526947,-117.73404551,-101.95230939
-60.74011731,-35.29756359,3.81545435,-13.48440389,-95.60794452,1.83487300
-1.41788103,2.41648214

>  <Name>
ligand

>  <RI>
0

>  <Rbt.Current_Directory>
/home/itssahil/PROJECTS/Mol_Feturizer/New_Systems/rnas/2CKY

>  <Rbt.Executable>
rbdock ($Id: //depot/dev/client3/rdock/2013.1/src/exe/rbdock.cxx#4 $)

>  <Rbt.Library>
libRbt.so (2013.1, Build901 2013/11/27)

>  <Rbt.Parameter_File>
/export/apps/rDock/src/rDock_2013.1_src/data/scripts/dock_solv.prm

>  <Rbt.Receptor>
prm/pocket_docking_6.prm

>  <SCORE>
-20.597

>  <SCORE.INTER>
-17.7355

>  <SCORE.INTER.CONST>
1

>  <SCORE.INTER.POLAR>
0

>  <SCORE.INTER.ROT>
8

>  <SCORE.INTER.SOLV>
16.0986

>  <SCORE.INTER.VDW>
-26.1232

>  <SCORE.INTER.norm>
-0.682135

>  <SCORE.INTRA>
-2.86149

>  <SCORE.INTRA.DIHEDRAL>
-5.01004

>  <SCORE.INTRA.DIHEDRAL.0>
16.4846

>  <SCORE.INTRA.POLAR>
0

>  <SCORE.INTRA.POLAR.0>
0

>  <SCORE.INTRA.REPUL>
0

>  <SCORE.INTRA.REPUL.0>
0

>  <SCORE.INTRA.SOLV>
2.749

>  <SCORE.INTRA.SOLV.lig_0>
-82.6983

>  <SCORE.INTRA.VDW>
-1.73098

>  <SCORE.INTRA.VDW.0>
-2.11466

>  <SCORE.INTRA.norm>
-0.110057

>  <SCORE.RESTR>
0

>  <SCORE.RESTR.CAVITY>
0

>  <SCORE.RESTR.norm>
0

>  <SCORE.SYSTEM>
0

>  <SCORE.SYSTEM.CONST>
0

>  <SCORE.SYSTEM.DIHEDRAL>
0

>  <SCORE.SYSTEM.SOLV>
0

>  <SCORE.SYSTEM.norm>
0

>  <SCORE.heavy>
26

>  <SCORE.norm>
-0.792192

>  <RMSD>
4.761

$$$$
ligand
 OpenBabel11021811423D
libRbt.so/2013.1/901 2013/11/27
 26 27  0  0  0  0  0  0  0  0999 V2000
    0.3503  -12.5323  -91.2564 C   0  0  0  0  0  0  0  0  0  0  0  0
    4.2106  -16.3104  -97.0989 C   0  0  0  0  0  0  0  0  0  0  0  0
   -0.2668  -14.4558  -99.6816 P   0  0  2  0  0  0  0  0  0  0  0  0
   -2.8301  -13.6681  -98.9889 P   0  0  2  0  0  0  0  0  0  0  0  0
    3.2137  -16.5907  -94.1192 C   0  0  0  0  0  0  0  0  0  0  0  0
    1.7205  -15.8258  -92.2900 C   0  0  0  0  0  0  0  0  0  0  0  0
    2.4619  -15.4951  -93.4169 C   0  0  0  0  0  0  0  0  0  0  0  0
    2.5218  -14.1567  -93.8161 C   0  0  0  0  0  0  0  0  0  0  0  0
    3.2102  -13.7192  -94.8708 N   0  0  0  0  0  0  0  0  0  0  0  0
    1.8320  -13.2160  -93.0959 N   0  0  0  0  0  0  0  0  0  0  0  0
    1.0948  -13.5746  -92.0026 C   0  0  0  0  0  0  0  0  0  0  0  0
    1.0302  -14.8647  -91.5831 N   0  0  0  0  0  0  0  0  0  0  0  0
    0.5645  -13.2877  -99.1892 O   0  5  0  0  0  0  0  0  0  0  0  0
   -2.3352  -12.2505  -99.1680 O   0  0  0  0  0  0  0  0  0  0  0  0
    0.8020  -18.2137  -96.7495 S   0  0  0  0  0  0  0  0  0  0  0  0
    1.3671  -17.7710  -95.2863 C   0  0  0  0  0  0  0  0  0  0  0  0
   -0.5175  -14.2077 -101.1667 O   0  0  0  0  0  0  0  0  0  0  0  0
   -3.7444  -13.7970  -97.7877 O   0  5  0  0  0  0  0  0  0  0  0  0
    2.5745  -17.0988  -95.3094 N   0  0  0  0  0  0  0  0  0  0  0  0
   -1.5488  -14.5739  -98.7077 O   0  0  0  0  0  0  0  0  0  0  0  0
   -3.5511  -14.0825 -100.2555 O   0  0  0  0  0  0  0  0  0  0  0  0
    2.9843  -16.9759  -96.6142 C   0  0  1  0  0  0  0  0  0  0  0  0
    2.0581  -17.5629  -97.4907 C   0  0  2  0  0  0  0  0  0  0  0  0
    1.9597  -17.7206  -98.9880 C   0  0  0  0  0  0  0  0  0  0  0  0
    1.6653  -16.3808  -99.6711 C   0  0  0  0  0  0  0  0  0  0  0  0
    0.4426  -15.8536  -99.1712 O   0  0  0  0  0  0  0  0  0  0  0  0
  1 11  1  0  0  0  0
  3 13  1  1  0  0  0
  3 17  2  0  0  0  0
  3 20  1  0  0  0  0
  3 26  1  0  0  0  0
  4 14  1  6  0  0  0
  4 18  1  0  0  0  0
  4 21  2  0  0  0  0
  4 20  1  0  0  0  0
  5 19  1  0  0  0  0
  5  7  1  0  0  0  0
  6  7  2  0  0  0  0
  6 12  1  0  0  0  0
  7  8  1  0  0  0  0
  8  9  1  0  0  0  0
  8 10  2  0  0  0  0
 10 11  1  0  0  0  0
 11 12  2  0  0  0  0
 15 23  1  0  0  0  0
 15 16  1  0  0  0  0
 16 19  1  0  0  0  0
 19 22  1  0  0  0  0
 22  2  1  6  0  0  0
 22 23  1  0  0  0  0
 23 24  1  6  0  0  0
 24 25  1  0  0  0  0
 25 26  1  0  0  0  0
M  CHG  2  13  -1  18  -1
M  END
>  <CHROM.1>
84.14755203,-65.22020975,100.82353397,-49.43122905,108.76525060,-59.01243814
-177.63398068,-70.88974821,0.51409509,-15.13674638,-96.85316252,0.80408198
-0.73023617,1.17123524

>  <Name>
ligand

>  <RI>
0

>  <Rbt.Current_Directory>
/home/itssahil/PROJECTS/Mol_Feturizer/New_Systems/rnas/2CKY

>  <Rbt.Executable>
rbdock ($Id: //depot/dev/client3/rdock/2013.1/src/exe/rbdock.cxx#4 $)

>  <Rbt.Library>
libRbt.so (2013.1, Build901 2013/11/27)

>  <Rbt.Parameter_File>
/export/apps/rDock/src/rDock_2013.1_src/data/scripts/dock_solv.prm

>  <Rbt.Receptor>
prm/pocket_docking_5.prm

>  <SCORE>
-11.9259

>  <SCORE.INTER>
-5.19604

>  <SCORE.INTER.CONST>
1

>  <SCORE.INTER.POLAR>
0

>  <SCORE.INTER.ROT>
8

>  <SCORE.INTER.SOLV>
16.9246

>  <SCORE.INTER.VDW>
-18.0389

>  <SCORE.INTER.norm>
-0.199848

>  <SCORE.INTRA>
-6.72985

>  <SCORE.INTRA.DIHEDRAL>
-10.8366

>  <SCORE.INTRA.DIHEDRAL.0>
16.4846

>  <SCORE.INTRA.POLAR>
0

>  <SCORE.INTRA.POLAR.0>
0

>  <SCORE.INTRA.REPUL>
0

>  <SCORE.INTRA.REPUL.0>
0

>  <SCORE.INTRA.SOLV>
1.68412

>  <SCORE.INTRA.SOLV.lig_0>
-82.6983

>  <SCORE.INTRA.VDW>
-2.1536

>  <SCORE.INTRA.VDW.0>
-2.11466

>  <SCORE.INTRA.norm>
-0.25884

>  <SCORE.RESTR>
0

>  <SCORE.RESTR.CAVITY>
0

>  <SCORE.RESTR.norm>
0

>  <SCORE.SYSTEM>
0

>  <SCORE.SYSTEM.CONST>
0

>  <SCORE.SYSTEM.DIHEDRAL>
0

>  <SCORE.SYSTEM.SOLV>
0

>  <SCORE.SYSTEM.norm>
0

>  <SCORE.heavy>
26

>  <SCORE.norm>
-0.458688

>  <RMSD>
4.892

$$$$
ligand
 OpenBabel11021811423D
libRbt.so/2013.1/901 2013/11/27
 26 27  0  0  0  0  0  0  0  0999 V2000
    4.7695  -15.7034  -93.5759 C   0  0  0  0  0  0  0  0  0  0  0  0
   -0.5200  -19.7806  -98.3216 C   0  0  0  0  0  0  0  0  0  0  0  0
    0.4546  -15.9789 -101.4237 P   0  0  2  0  0  0  0  0  0  0  0  0
    2.5022  -17.7368 -100.8009 P   0  0  2  0  0  0  0  0  0  0  0  0
    0.4770  -19.0224  -95.4264 C   0  0  0  0  0  0  0  0  0  0  0  0
    2.4748  -17.5972  -95.7987 C   0  0  0  0  0  0  0  0  0  0  0  0
    1.6001  -18.1796  -94.8905 C   0  0  0  0  0  0  0  0  0  0  0  0
    1.7672  -17.9146  -93.5281 C   0  0  0  0  0  0  0  0  0  0  0  0
    0.9836  -18.4054  -92.5674 N   0  0  0  0  0  0  0  0  0  0  0  0
    2.7993  -17.1053  -93.1292 N   0  0  0  0  0  0  0  0  0  0  0  0
    3.6560  -16.5622  -94.0449 C   0  0  0  0  0  0  0  0  0  0  0  0
    3.5093  -16.7904  -95.3757 N   0  0  0  0  0  0  0  0  0  0  0  0
   -0.1968  -15.4830 -102.6995 O   0  5  0  0  0  0  0  0  0  0  0  0
    3.5807  -16.6770 -100.7846 O   0  0  0  0  0  0  0  0  0  0  0  0
   -2.0922  -16.4711  -96.9293 S   0  0  0  0  0  0  0  0  0  0  0  0
   -1.0786  -17.1312  -95.8370 C   0  0  0  0  0  0  0  0  0  0  0  0
    1.1309  -14.7668 -100.7885 O   0  0  0  0  0  0  0  0  0  0  0  0
    3.0239  -19.0622 -101.3172 O   0  5  0  0  0  0  0  0  0  0  0  0
   -0.4813  -18.3112  -96.2383 N   0  0  0  0  0  0  0  0  0  0  0  0
    1.3806  -17.2406 -101.8193 O   0  0  0  0  0  0  0  0  0  0  0  0
    1.9636  -17.8872  -99.3927 O   0  0  0  0  0  0  0  0  0  0  0  0
   -0.9177  -18.6166  -97.5040 C   0  0  1  0  0  0  0  0  0  0  0  0
   -1.8154  -17.6458  -97.9754 C   0  0  2  0  0  0  0  0  0  0  0  0
   -2.5859  -17.4390  -99.2560 C   0  0  0  0  0  0  0  0  0  0  0  0
   -1.9194  -16.3816 -100.1425 C   0  0  0  0  0  0  0  0  0  0  0  0
   -0.6537  -16.8608 -100.5801 O   0  0  0  0  0  0  0  0  0  0  0  0
  1 11  1  0  0  0  0
  3 13  1  6  0  0  0
  3 17  2  0  0  0  0
  3 20  1  0  0  0  0
  3 26  1  0  0  0  0
  4 14  1  1  0  0  0
  4 18  1  0  0  0  0
  4 21  2  0  0  0  0
  4 20  1  0  0  0  0
  5 19  1  0  0  0  0
  5  7  1  0  0  0  0
  6  7  2  0  0  0  0
  6 12  1  0  0  0  0
  7  8  1  0  0  0  0
  8  9  1  0  0  0  0
  8 10  2  0  0  0  0
 10 11  1  0  0  0  0
 11 12  2  0  0  0  0
 15 23  1  0  0  0  0
 15 16  1  0  0  0  0
 16 19  1  0  0  0  0
 19 22  1  0  0  0  0
 22  2  1  6  0  0  0
 22 23  1  0  0  0  0
 23 24  1  6  0  0  0
 24 25  1  0  0  0  0
 25 26  1  0  0  0  0
M  CHG  2  13  -1  18  -1
M  END
>  <CHROM.1>
163.13437655,-50.10248735,-63.64987489,-70.11300411,77.57459191,65.78732003
-173.42208894,-57.57452228,0.85892991,-17.23538059,-98.11352173,-1.38446625
-0.05603034,-1.45686970

>  <Name>
ligand

>  <RI>
0

>  <Rbt.Current_Directory>
/home/itssahil/PROJECTS/Mol_Feturizer/New_Systems/rnas/2CKY

>  <Rbt.Executable>
rbdock ($Id: //depot/dev/client3/rdock/2013.1/src/exe/rbdock.cxx#4 $)

>  <Rbt.Library>
libRbt.so (2013.1, Build901 2013/11/27)

>  <Rbt.Parameter_File>
/export/apps/rDock/src/rDock_2013.1_src/data/scripts/dock_solv.prm

>  <Rbt.Receptor>
prm/pocket_docking_5.prm

>  <SCORE>
-16.9348

>  <SCORE.INTER>
-9.75993

>  <SCORE.INTER.CONST>
1

>  <SCORE.INTER.POLAR>
0

>  <SCORE.INTER.ROT>
8

>  <SCORE.INTER.SOLV>
17.3545

>  <SCORE.INTER.VDW>
-21.2248

>  <SCORE.INTER.norm>
-0.375382

>  <SCORE.INTRA>
-7.17485

>  <SCORE.INTRA.DIHEDRAL>
-10.2427

>  <SCORE.INTRA.DIHEDRAL.0>
16.4846

>  <SCORE.INTRA.POLAR>
0

>  <SCORE.INTRA.POLAR.0>
0

>  <SCORE.INTRA.REPUL>
0

>  <SCORE.INTRA.REPUL.0>
0

>  <SCORE.INTRA.SOLV>
1.06913

>  <SCORE.INTRA.SOLV.lig_0>
-82.6983

>  <SCORE.INTRA.VDW>
-2.58809

>  <SCORE.INTRA.VDW.0>
-2.11466

>  <SCORE.INTRA.norm>
-0.275956

>  <SCORE.RESTR>
0

>  <SCORE.RESTR.CAVITY>
0

>  <SCORE.RESTR.norm>
0

>  <SCORE.SYSTEM>
0

>  <SCORE.SYSTEM.CONST>
0

>  <SCORE.SYSTEM.DIHEDRAL>
0

>  <SCORE.SYSTEM.SOLV>
0

>  <SCORE.SYSTEM.norm>
0

>  <SCORE.heavy>
26

>  <SCORE.norm>
-0.651338

>  <RMSD>
4.913

$$$$
ligand
 OpenBabel11021811423D
libRbt.so/2013.1/901 2013/11/27
 26 27  0  0  0  0  0  0  0  0999 V2000
   -0.3002  -19.2408  -86.0868 C   0  0  0  0  0  0  0  0  0  0  0  0
    2.6416  -15.7952  -93.3591 C   0  0  0  0  0  0  0  0  0  0  0  0
   -0.2354  -19.7048  -97.9088 P   0  0  2  0  0  0  0  0  0  0  0  0
   -1.9474  -21.5901  -96.8200 P   0  0  2  0  0  0  0  0  0  0  0  0
    2.6664  -17.3425  -90.6102 C   0  0  0  0  0  0  0  0  0  0  0  0
    2.4843  -18.0557  -88.2399 C   0  0  0  0  0  0  0  0  0  0  0  0
    1.8505  -17.8637  -89.4607 C   0  0  0  0  0  0  0  0  0  0  0  0
    0.4775  -18.1096  -89.5540 C   0  0  0  0  0  0  0  0  0  0  0  0
   -0.2388  -17.9485  -90.6670 N   0  0  0  0  0  0  0  0  0  0  0  0
   -0.1964  -18.5508  -88.4447 N   0  0  0  0  0  0  0  0  0  0  0  0
    0.4583  -18.7493  -87.2618 C   0  0  0  0  0  0  0  0  0  0  0  0
    1.7885  -18.5048  -87.1379 N   0  0  0  0  0  0  0  0  0  0  0  0
   -1.3970  -19.1616  -98.7173 O   0  5  0  0  0  0  0  0  0  0  0  0
   -3.0147  -20.7208  -97.4459 O   0  0  0  0  0  0  0  0  0  0  0  0
    1.4225  -19.5105  -93.6303 S   0  0  0  0  0  0  0  0  0  0  0  0
    1.8384  -19.1514  -92.0960 C   0  0  0  0  0  0  0  0  0  0  0  0
    1.0238  -19.4206  -98.7233 O   0  0  0  0  0  0  0  0  0  0  0  0
   -1.7596  -21.2787  -95.3492 O   0  5  0  0  0  0  0  0  0  0  0  0
    2.2911  -17.8596  -91.9045 N   0  0  0  0  0  0  0  0  0  0  0  0
   -0.5767  -21.2427  -97.5560 O   0  0  0  0  0  0  0  0  0  0  0  0
   -2.3433  -23.0399  -97.0124 O   0  0  0  0  0  0  0  0  0  0  0  0
    2.2604  -17.2000  -93.1084 C   0  0  1  0  0  0  0  0  0  0  0  0
    1.7852  -18.0375  -94.1298 C   0  0  2  0  0  0  0  0  0  0  0  0
    1.5231  -17.8740  -95.6067 C   0  0  0  0  0  0  0  0  0  0  0  0
    0.0207  -17.8684  -95.9085 C   0  0  0  0  0  0  0  0  0  0  0  0
   -0.3758  -19.1575  -96.3601 O   0  0  0  0  0  0  0  0  0  0  0  0
  1 11  1  0  0  0  0
  3 13  1  6  0  0  0
  3 17  2  0  0  0  0
  3 20  1  0  0  0  0
  3 26  1  0  0  0  0
  4 14  1  6  0  0  0
  4 18  1  0  0  0  0
  4 21  2  0  0  0  0
  4 20  1  0  0  0  0
  5 19  1  0  0  0  0
  5  7  1  0  0  0  0
  6  7  2  0  0  0  0
  6 12  1  0  0  0  0
  7  8  1  0  0  0  0
  8  9  1  0  0  0  0
  8 10  2  0  0  0  0
 10 11  1  0  0  0  0
 11 12  2  0  0  0  0
 15 23  1  0  0  0  0
 15 16  1  0  0  0  0
 16 19  1  0  0  0  0
 19 22  1  0  0  0  0
 22  2  1  1  0  0  0
 22 23  1  0  0  0  0
 23 24  1  1  0  0  0
 24 25  1  0  0  0  0
 25 26  1  0  0  0  0
M  CHG  2  13  -1  18  -1
M  END
>  <CHROM.1>
-54.82494453,-34.83474075,145.45689458,40.79549208,70.38493847,-99.18051561
-83.21482726,-80.79663423,0.29212484,-19.19439526,-93.76166875,1.21656148
0.76655030,1.56798591

>  <Name>
ligand

>  <RI>
0

>  <Rbt.Current_Directory>
/home/itssahil/PROJECTS/Mol_Feturizer/New_Systems/rnas/2CKY

>  <Rbt.Executable>
rbdock ($Id: //depot/dev/client3/rdock/2013.1/src/exe/rbdock.cxx#4 $)

>  <Rbt.Library>
libRbt.so (2013.1, Build901 2013/11/27)

>  <Rbt.Parameter_File>
/export/apps/rDock/src/rDock_2013.1_src/data/scripts/dock_solv.prm

>  <Rbt.Receptor>
prm/pocket_docking_7.prm

>  <SCORE>
-24.8668

>  <SCORE.INTER>
-23.6151

>  <SCORE.INTER.CONST>
1

>  <SCORE.INTER.POLAR>
0

>  <SCORE.INTER.ROT>
8

>  <SCORE.INTER.SOLV>
21.6593

>  <SCORE.INTER.VDW>
-31.8965

>  <SCORE.INTER.norm>
-0.908275

>  <SCORE.INTRA>
-1.25168

>  <SCORE.INTRA.DIHEDRAL>
-3.96286

>  <SCORE.INTRA.DIHEDRAL.0>
16.4846

>  <SCORE.INTRA.POLAR>
0

>  <SCORE.INTRA.POLAR.0>
0

>  <SCORE.INTRA.REPUL>
0

>  <SCORE.INTRA.REPUL.0>
0

>  <SCORE.INTRA.SOLV>
3.39719

>  <SCORE.INTRA.SOLV.lig_0>
-82.6983

>  <SCORE.INTRA.VDW>
-0.968838

>  <SCORE.INTRA.VDW.0>
-2.11466

>  <SCORE.INTRA.norm>
-0.0481414

>  <SCORE.RESTR>
0

>  <SCORE.RESTR.CAVITY>
0

>  <SCORE.RESTR.norm>
0

>  <SCORE.SYSTEM>
0

>  <SCORE.SYSTEM.CONST>
0

>  <SCORE.SYSTEM.DIHEDRAL>
0

>  <SCORE.SYSTEM.SOLV>
0

>  <SCORE.SYSTEM.norm>
0

>  <SCORE.heavy>
26

>  <SCORE.norm>
-0.956416

>  <RMSD>
4.953

$$$$
ligand
 OpenBabel11021811423D
libRbt.so/2013.1/901 2013/11/27
 26 27  0  0  0  0  0  0  0  0999 V2000
    5.1373  -15.2262  -91.2959 C   0  0  0  0  0  0  0  0  0  0  0  0
   -0.7282  -16.5822  -92.8738 C   0  0  0  0  0  0  0  0  0  0  0  0
   -0.8008  -12.2135  -94.6596 P   0  0  2  0  0  0  0  0  0  0  0  0
    0.8320  -12.9003  -92.5306 P   0  0  2  0  0  0  0  0  0  0  0  0
    1.3721  -18.7393  -93.8152 C   0  0  0  0  0  0  0  0  0  0  0  0
    3.2173  -17.0805  -93.8783 C   0  0  0  0  0  0  0  0  0  0  0  0
    2.3567  -17.8514  -93.1075 C   0  0  0  0  0  0  0  0  0  0  0  0
    2.4049  -17.7290  -91.7158 C   0  0  0  0  0  0  0  0  0  0  0  0
    1.6210  -18.4061  -90.8762 N   0  0  0  0  0  0  0  0  0  0  0  0
    3.3120  -16.8678  -91.1545 N   0  0  0  0  0  0  0  0  0  0  0  0
    4.1596  -16.1368  -91.9383 C   0  0  0  0  0  0  0  0  0  0  0  0
    4.1254  -16.2244  -93.2932 N   0  0  0  0  0  0  0  0  0  0  0  0
    0.5421  -12.1616  -95.3610 O   0  5  0  0  0  0  0  0  0  0  0  0
    1.0131  -14.1969  -93.2873 O   0  0  0  0  0  0  0  0  0  0  0  0
   -0.9364  -17.4217  -96.6967 S   0  0  0  0  0  0  0  0  0  0  0  0
    0.2492  -18.2816  -95.9819 C   0  0  0  0  0  0  0  0  0  0  0  0
   -1.6234  -11.0576  -95.2227 O   0  0  0  0  0  0  0  0  0  0  0  0
    0.6494  -13.1368  -91.0452 O   0  5  0  0  0  0  0  0  0  0  0  0
    0.4039  -18.0441  -94.6292 N   0  0  0  0  0  0  0  0  0  0  0  0
   -0.5100  -12.2316  -93.0718 O   0  0  0  0  0  0  0  0  0  0  0  0
    2.0441  -12.0280  -92.7871 O   0  0  0  0  0  0  0  0  0  0  0  0
   -0.5266  -17.1135  -94.2371 C   0  0  1  0  0  0  0  0  0  0  0  0
   -1.3235  -16.7105  -95.3201 C   0  0  2  0  0  0  0  0  0  0  0  0
   -2.4808  -15.7585  -95.4956 C   0  0  0  0  0  0  0  0  0  0  0  0
   -1.9946  -14.3518  -95.8603 C   0  0  0  0  0  0  0  0  0  0  0  0
   -1.3671  -13.7602  -94.7294 O   0  0  0  0  0  0  0  0  0  0  0  0
  1 11  1  0  0  0  0
  3 13  1  6  0  0  0
  3 17  2  0  0  0  0
  3 20  1  0  0  0  0
  3 26  1  0  0  0  0
  4 14  1  6  0  0  0
  4 18  1  0  0  0  0
  4 21  2  0  0  0  0
  4 20  1  0  0  0  0
  5 19  1  0  0  0  0
  5  7  1  0  0  0  0
  6  7  2  0  0  0  0
  6 12  1  0  0  0  0
  7  8  1  0  0  0  0
  8  9  1  0  0  0  0
  8 10  2  0  0  0  0
 10 11  1  0  0  0  0
 11 12  2  0  0  0  0
 15 23  1  0  0  0  0
 15 16  1  0  0  0  0
 16 19  1  0  0  0  0
 19 22  1  0  0  0  0
 22  2  1  1  0  0  0
 22 23  1  0  0  0  0
 23 24  1  1  0  0  0
 24 25  1  0  0  0  0
 25 26  1  0  0  0  0
M  CHG  2  13  -1  18  -1
M  END
>  <CHROM.1>
-30.21254159,122.31441022,-62.97451430,-43.64618975,-89.57036374,-70.77171877
-175.38428211,-79.21384626,0.63306190,-15.16573646,-93.76514579,-0.69882834
-0.70680636,0.21886615

>  <Name>
ligand

>  <RI>
0

>  <Rbt.Current_Directory>
/home/itssahil/PROJECTS/Mol_Feturizer/New_Systems/rnas/2CKY

>  <Rbt.Executable>
rbdock ($Id: //depot/dev/client3/rdock/2013.1/src/exe/rbdock.cxx#4 $)

>  <Rbt.Library>
libRbt.so (2013.1, Build901 2013/11/27)

>  <Rbt.Parameter_File>
/export/apps/rDock/src/rDock_2013.1_src/data/scripts/dock_solv.prm

>  <Rbt.Receptor>
prm/pocket_docking_7.prm

>  <SCORE>
-15.5919

>  <SCORE.INTER>
-8.48446

>  <SCORE.INTER.CONST>
1

>  <SCORE.INTER.POLAR>
0

>  <SCORE.INTER.ROT>
8

>  <SCORE.INTER.SOLV>
15.0629

>  <SCORE.INTER.VDW>
-19.6106

>  <SCORE.INTER.norm>
-0.326325

>  <SCORE.INTRA>
-7.10745

>  <SCORE.INTRA.DIHEDRAL>
-9.31409

>  <SCORE.INTRA.DIHEDRAL.0>
16.4846

>  <SCORE.INTRA.POLAR>
0

>  <SCORE.INTRA.POLAR.0>
0

>  <SCORE.INTRA.REPUL>
0

>  <SCORE.INTRA.REPUL.0>
0

>  <SCORE.INTRA.SOLV>
1.37865

>  <SCORE.INTRA.SOLV.lig_0>
-82.6983

>  <SCORE.INTRA.VDW>
-3.13973

>  <SCORE.INTRA.VDW.0>
-2.11466

>  <SCORE.INTRA.norm>
-0.273363

>  <SCORE.RESTR>
0

>  <SCORE.RESTR.CAVITY>
0

>  <SCORE.RESTR.norm>
0

>  <SCORE.SYSTEM>
0

>  <SCORE.SYSTEM.CONST>
0

>  <SCORE.SYSTEM.DIHEDRAL>
0

>  <SCORE.SYSTEM.SOLV>
0

>  <SCORE.SYSTEM.norm>
0

>  <SCORE.heavy>
26

>  <SCORE.norm>
-0.599689

>  <RMSD>
5.116

$$$$
ligand
 OpenBabel11021811423D
libRbt.so/2013.1/901 2013/11/27
 26 27  0  0  0  0  0  0  0  0999 V2000
    2.9486  -15.4535  -92.9727 C   0  0  0  0  0  0  0  0  0  0  0  0
    2.1192  -17.1578  -99.2577 C   0  0  0  0  0  0  0  0  0  0  0  0
    1.0095  -12.3880  -99.1622 P   0  0  2  0  0  0  0  0  0  0  0  0
    3.7331  -12.8806  -99.0645 P   0  0  2  0  0  0  0  0  0  0  0  0
    0.3520  -18.5447  -97.0430 C   0  0  0  0  0  0  0  0  0  0  0  0
    2.2880  -18.0095  -95.5849 C   0  0  0  0  0  0  0  0  0  0  0  0
    0.9808  -17.7206  -95.9548 C   0  0  0  0  0  0  0  0  0  0  0  0
    0.3279  -16.6473  -95.3417 C   0  0  0  0  0  0  0  0  0  0  0  0
   -0.9191  -16.2686  -95.6237 N   0  0  0  0  0  0  0  0  0  0  0  0
    0.9897  -15.9262  -94.3818 N   0  0  0  0  0  0  0  0  0  0  0  0
    2.2692  -16.2466  -94.0248 C   0  0  0  0  0  0  0  0  0  0  0  0
    2.9334  -17.2746  -94.6136 N   0  0  0  0  0  0  0  0  0  0  0  0
    1.4015  -11.3097 -100.1531 O   0  5  0  0  0  0  0  0  0  0  0  0
    4.0194  -11.5286  -99.6783 O   0  0  0  0  0  0  0  0  0  0  0  0
   -1.7328  -16.6331  -99.7573 S   0  0  0  0  0  0  0  0  0  0  0  0
   -1.4421  -17.5456  -98.4386 C   0  0  0  0  0  0  0  0  0  0  0  0
   -0.2001  -11.8515  -98.4012 O   0  0  0  0  0  0  0  0  0  0  0  0
    3.5882  -13.9580 -100.1199 O   0  5  0  0  0  0  0  0  0  0  0  0
   -0.1058  -17.7922  -98.1864 N   0  0  0  0  0  0  0  0  0  0  0  0
    2.3315  -12.7613  -98.3145 O   0  0  0  0  0  0  0  0  0  0  0  0
    4.8608  -13.2167  -98.1099 O   0  0  0  0  0  0  0  0  0  0  0  0
    0.6459  -17.1702  -99.1526 C   0  0  1  0  0  0  0  0  0  0  0  0
   -0.1729  -16.4937 -100.0704 C   0  0  2  0  0  0  0  0  0  0  0  0
    0.0720  -15.6468 -101.2948 C   0  0  0  0  0  0  0  0  0  0  0  0
   -0.0236  -14.1529 -100.9669 C   0  0  0  0  0  0  0  0  0  0  0  0
    0.9285  -13.8274  -99.9616 O   0  0  0  0  0  0  0  0  0  0  0  0
  1 11  1  0  0  0  0
  3 13  1  6  0  0  0
  3 17  2  0  0  0  0
  3 20  1  0  0  0  0
  3 26  1  0  0  0  0
  4 14  1  6  0  0  0
  4 18  1  0  0  0  0
  4 21  2  0  0  0  0
  4 20  1  0  0  0  0
  5 19  1  0  0  0  0
  5  7  1  0  0  0  0
  6  7  2  0  0  0  0
  6 12  1  0  0  0  0
  7  8  1  0  0  0  0
  8  9  1  0  0  0  0
  8 10  2  0  0  0  0
 10 11  1  0  0  0  0
 11 12  2  0  0  0  0
 15 23  1  0  0  0  0
 15 16  1  0  0  0  0
 16 19  1  0  0  0  0
 19 22  1  0  0  0  0
 22  2  1  1  0  0  0
 22 23  1  0  0  0  0
 23 24  1  1  0  0  0
 24 25  1  0  0  0  0
 25 26  1  0  0  0  0
M  CHG  2  13  -1  18  -1
M  END
>  <CHROM.1>
-41.16259867,-106.01180054,-121.62057456,60.76293538,79.96488244,58.63120949
-170.42133448,-66.57153940,1.29927929,-15.01700742,-98.15493242,-1.90508524
-0.75033522,-0.90255348

>  <Name>
ligand

>  <RI>
0

>  <Rbt.Current_Directory>
/home/itssahil/PROJECTS/Mol_Feturizer/New_Systems/rnas/2CKY

>  <Rbt.Executable>
rbdock ($Id: //depot/dev/client3/rdock/2013.1/src/exe/rbdock.cxx#4 $)

>  <Rbt.Library>
libRbt.so (2013.1, Build901 2013/11/27)

>  <Rbt.Parameter_File>
/export/apps/rDock/src/rDock_2013.1_src/data/scripts/dock_solv.prm

>  <Rbt.Receptor>
prm/pocket_docking_3.prm

>  <SCORE>
-7.64722

>  <SCORE.INTER>
-1.2625

>  <SCORE.INTER.CONST>
1

>  <SCORE.INTER.POLAR>
0

>  <SCORE.INTER.ROT>
8

>  <SCORE.INTER.SOLV>
10.4507

>  <SCORE.INTER.VDW>
-13.2586

>  <SCORE.INTER.norm>
-0.0485576

>  <SCORE.INTRA>
-6.38473

>  <SCORE.INTRA.DIHEDRAL>
-10.628

>  <SCORE.INTRA.DIHEDRAL.0>
16.4846

>  <SCORE.INTRA.POLAR>
0

>  <SCORE.INTRA.POLAR.0>
0

>  <SCORE.INTRA.REPUL>
0

>  <SCORE.INTRA.REPUL.0>
0

>  <SCORE.INTRA.SOLV>
2.69686

>  <SCORE.INTRA.SOLV.lig_0>
-82.6983

>  <SCORE.INTRA.VDW>
-2.41915

>  <SCORE.INTRA.VDW.0>
-2.11466

>  <SCORE.INTRA.norm>
-0.245566

>  <SCORE.RESTR>
0

>  <SCORE.RESTR.CAVITY>
0

>  <SCORE.RESTR.norm>
0

>  <SCORE.SYSTEM>
0

>  <SCORE.SYSTEM.CONST>
0

>  <SCORE.SYSTEM.DIHEDRAL>
0

>  <SCORE.SYSTEM.SOLV>
0

>  <SCORE.SYSTEM.norm>
0

>  <SCORE.heavy>
26

>  <SCORE.norm>
-0.294124

>  <RMSD>
5.411

$$$$
ligand
 OpenBabel11021811423D
libRbt.so/2013.1/901 2013/11/27
 26 27  0  0  0  0  0  0  0  0999 V2000
    0.5359  -17.1623  -91.4601 C   0  0  0  0  0  0  0  0  0  0  0  0
    0.7703  -11.4665  -96.6493 C   0  0  0  0  0  0  0  0  0  0  0  0
   -3.1093  -15.0168  -98.4920 P   0  0  2  0  0  0  0  0  0  0  0  0
   -1.1795  -16.8097  -97.6365 P   0  0  2  0  0  0  0  0  0  0  0  0
    0.2047  -11.8416  -93.5686 C   0  0  0  0  0  0  0  0  0  0  0  0
   -0.2951  -14.2718  -93.6390 C   0  0  0  0  0  0  0  0  0  0  0  0
    0.2994  -13.2139  -92.9633 C   0  0  0  0  0  0  0  0  0  0  0  0
    1.0031  -13.4769  -91.7844 C   0  0  0  0  0  0  0  0  0  0  0  0
    1.6241  -12.5464  -91.0588 N   0  0  0  0  0  0  0  0  0  0  0  0
    1.0683  -14.7656  -91.3215 N   0  0  0  0  0  0  0  0  0  0  0  0
    0.4565  -15.7832  -91.9980 C   0  0  0  0  0  0  0  0  0  0  0  0
   -0.2217  -15.5597  -93.1533 N   0  0  0  0  0  0  0  0  0  0  0  0
   -4.1995  -15.6017  -97.6160 O   0  5  0  0  0  0  0  0  0  0  0  0
   -2.1092  -17.5201  -96.6786 O   0  0  0  0  0  0  0  0  0  0  0  0
   -3.0418  -11.4918  -95.7381 S   0  0  0  0  0  0  0  0  0  0  0  0
   -2.1293  -11.6980  -94.4036 C   0  0  0  0  0  0  0  0  0  0  0  0
   -3.3233  -15.5971  -99.8875 O   0  0  0  0  0  0  0  0  0  0  0  0
    0.2382  -16.7518  -97.1051 O   0  5  0  0  0  0  0  0  0  0  0  0
   -0.7658  -11.7118  -94.6292 N   0  0  0  0  0  0  0  0  0  0  0  0
   -1.7004  -15.3082  -97.7598 O   0  0  0  0  0  0  0  0  0  0  0  0
   -1.2220  -17.5362  -98.9655 O   0  0  0  0  0  0  0  0  0  0  0  0
   -0.5406  -11.5344  -95.9721 C   0  0  1  0  0  0  0  0  0  0  0  0
   -1.7497  -11.3972  -96.6719 C   0  0  2  0  0  0  0  0  0  0  0  0
   -2.1257  -11.1697  -98.1153 C   0  0  0  0  0  0  0  0  0  0  0  0
   -2.1681  -12.4887  -98.8943 C   0  0  0  0  0  0  0  0  0  0  0  0
   -3.0695  -13.3856  -98.2572 O   0  0  0  0  0  0  0  0  0  0  0  0
  1 11  1  0  0  0  0
  3 13  1  1  0  0  0
  3 17  2  0  0  0  0
  3 20  1  0  0  0  0
  3 26  1  0  0  0  0
  4 14  1  1  0  0  0
  4 18  1  0  0  0  0
  4 21  2  0  0  0  0
  4 20  1  0  0  0  0
  5 19  1  0  0  0  0
  5  7  1  0  0  0  0
  6  7  2  0  0  0  0
  6 12  1  0  0  0  0
  7  8  1  0  0  0  0
  8  9  1  0  0  0  0
  8 10  2  0  0  0  0
 10 11  1  0  0  0  0
 11 12  2  0  0  0  0
 15 23  1  0  0  0  0
 15 16  1  0  0  0  0
 16 19  1  0  0  0  0
 19 22  1  0  0  0  0
 22  2  1  1  0  0  0
 22 23  1  0  0  0  0
 23 24  1  1  0  0  0
 24 25  1  0  0  0  0
 25 26  1  0  0  0  0
M  CHG  2  13  -1  18  -1
M  END
>  <CHROM.1>
67.52636839,72.94160776,14.13237790,-68.40021846,-96.00208948,56.37582134
-161.96229308,179.31784122,-1.25727804,-14.18214926,-95.89640765,-0.40856374
1.06898069,-2.90409452

>  <Name>
ligand

>  <RI>
0

>  <Rbt.Current_Directory>
/home/itssahil/PROJECTS/Mol_Feturizer/New_Systems/rnas/2CKY

>  <Rbt.Executable>
rbdock ($Id: //depot/dev/client3/rdock/2013.1/src/exe/rbdock.cxx#4 $)

>  <Rbt.Library>
libRbt.so (2013.1, Build901 2013/11/27)

>  <Rbt.Parameter_File>
/export/apps/rDock/src/rDock_2013.1_src/data/scripts/dock_solv.prm

>  <Rbt.Receptor>
prm/pocket_docking_7.prm

>  <SCORE>
-17.8819

>  <SCORE.INTER>
-10.8197

>  <SCORE.INTER.CONST>
1

>  <SCORE.INTER.POLAR>
0

>  <SCORE.INTER.ROT>
8

>  <SCORE.INTER.SOLV>
13.4461

>  <SCORE.INTER.VDW>
-20.6285

>  <SCORE.INTER.norm>
-0.416144

>  <SCORE.INTRA>
-7.06215

>  <SCORE.INTRA.DIHEDRAL>
-9.934

>  <SCORE.INTRA.DIHEDRAL.0>
16.4846

>  <SCORE.INTRA.POLAR>
0

>  <SCORE.INTRA.POLAR.0>
0

>  <SCORE.INTRA.REPUL>
0

>  <SCORE.INTRA.REPUL.0>
0

>  <SCORE.INTRA.SOLV>
-0.0789511

>  <SCORE.INTRA.SOLV.lig_0>
-82.6983

>  <SCORE.INTRA.VDW>
-2.05567

>  <SCORE.INTRA.VDW.0>
-2.11466

>  <SCORE.INTRA.norm>
-0.271621

>  <SCORE.RESTR>
0

>  <SCORE.RESTR.CAVITY>
0

>  <SCORE.RESTR.norm>
0

>  <SCORE.SYSTEM>
0

>  <SCORE.SYSTEM.CONST>
0

>  <SCORE.SYSTEM.DIHEDRAL>
0

>  <SCORE.SYSTEM.SOLV>
0

>  <SCORE.SYSTEM.norm>
0

>  <SCORE.heavy>
26

>  <SCORE.norm>
-0.687765

>  <RMSD>
5.461

$$$$
ligand
 OpenBabel11021811423D
libRbt.so/2013.1/901 2013/11/27
 26 27  0  0  0  0  0  0  0  0999 V2000
    4.6094  -15.9788  -94.4329 C   0  0  0  0  0  0  0  0  0  0  0  0
   -0.8107  -12.6556  -94.8976 C   0  0  0  0  0  0  0  0  0  0  0  0
    0.8292  -11.8738  -98.8541 P   0  0  2  0  0  0  0  0  0  0  0  0
    1.7052   -9.7563 -100.4094 P   0  0  2  0  0  0  0  0  0  0  0  0
   -1.1037  -15.6832  -94.0614 C   0  0  0  0  0  0  0  0  0  0  0  0
    1.1845  -15.0809  -93.3119 C   0  0  0  0  0  0  0  0  0  0  0  0
    0.3886  -15.7740  -94.2147 C   0  0  0  0  0  0  0  0  0  0  0  0
    1.0051  -16.5658  -95.1880 C   0  0  0  0  0  0  0  0  0  0  0  0
    0.3461  -17.2845  -96.0973 N   0  0  0  0  0  0  0  0  0  0  0  0
    2.3743  -16.6182  -95.2339 N   0  0  0  0  0  0  0  0  0  0  0  0
    3.1313  -15.9094  -94.3442 C   0  0  0  0  0  0  0  0  0  0  0  0
    2.5599  -15.1435  -93.3790 N   0  0  0  0  0  0  0  0  0  0  0  0
    1.9971  -11.6180  -97.9221 O   0  5  0  0  0  0  0  0  0  0  0  0
    1.0772   -9.0428 -101.5855 O   0  0  0  0  0  0  0  0  0  0  0  0
   -3.4018  -14.6456  -97.0631 S   0  0  0  0  0  0  0  0  0  0  0  0
   -2.7211  -15.6153  -95.9441 C   0  0  0  0  0  0  0  0  0  0  0  0
    1.2071  -13.0939  -99.6898 O   0  0  0  0  0  0  0  0  0  0  0  0
    2.6823  -10.8245 -100.8563 O   0  5  0  0  0  0  0  0  0  0  0  0
   -1.7837  -15.0003  -95.1359 N   0  0  0  0  0  0  0  0  0  0  0  0
    0.5250  -10.4910  -99.6295 O   0  0  0  0  0  0  0  0  0  0  0  0
    2.4008   -8.7245  -99.5449 O   0  0  0  0  0  0  0  0  0  0  0  0
   -1.6806  -13.6822  -95.5068 C   0  0  1  0  0  0  0  0  0  0  0  0
   -2.5483  -13.3887  -96.5705 C   0  0  2  0  0  0  0  0  0  0  0  0
   -2.8786  -12.1498  -97.3657 C   0  0  0  0  0  0  0  0  0  0  0  0
   -1.8750  -11.9341  -98.5035 C   0  0  0  0  0  0  0  0  0  0  0  0
   -0.5599  -11.8607  -97.9666 O   0  0  0  0  0  0  0  0  0  0  0  0
  1 11  1  0  0  0  0
  3 13  1  1  0  0  0
  3 17  2  0  0  0  0
  3 20  1  0  0  0  0
  3 26  1  0  0  0  0
  4 14  1  6  0  0  0
  4 18  1  0  0  0  0
  4 21  2  0  0  0  0
  4 20  1  0  0  0  0
  5 19  1  0  0  0  0
  5  7  1  0  0  0  0
  6  7  2  0  0  0  0
  6 12  1  0  0  0  0
  7  8  1  0  0  0  0
  8  9  1  0  0  0  0
  8 10  2  0  0  0  0
 10 11  1  0  0  0  0
 11 12  2  0  0  0  0
 15 23  1  0  0  0  0
 15 16  1  0  0  0  0
 16 19  1  0  0  0  0
 19 22  1  0  0  0  0
 22  2  1  1  0  0  0
 22 23  1  0  0  0  0
 23 24  1  1  0  0  0
 24 25  1  0  0  0  0
 25 26  1  0  0  0  0
M  CHG  2  13  -1  18  -1
M  END
>  <CHROM.1>
53.73693561,118.06393572,113.51274797,148.82899410,-96.52782572,-56.89294502
169.81970274,173.53382137,0.30540670,-13.17060739,-97.21413884,-1.70055455
-0.03728312,-0.77541396

>  <Name>
ligand

>  <RI>
0

>  <Rbt.Current_Directory>
/home/itssahil/PROJECTS/Mol_Feturizer/New_Systems/rnas/2CKY

>  <Rbt.Executable>
rbdock ($Id: //depot/dev/client3/rdock/2013.1/src/exe/rbdock.cxx#4 $)

>  <Rbt.Library>
libRbt.so (2013.1, Build901 2013/11/27)

>  <Rbt.Parameter_File>
/export/apps/rDock/src/rDock_2013.1_src/data/scripts/dock_solv.prm

>  <Rbt.Receptor>
prm/pocket_docking_7.prm

>  <SCORE>
-13.4596

>  <SCORE.INTER>
-8.20139

>  <SCORE.INTER.CONST>
1

>  <SCORE.INTER.POLAR>
0

>  <SCORE.INTER.ROT>
8

>  <SCORE.INTER.SOLV>
8.74355

>  <SCORE.INTER.VDW>
-17.3154

>  <SCORE.INTER.norm>
-0.315438

>  <SCORE.INTRA>
-5.25823

>  <SCORE.INTRA.DIHEDRAL>
-9.59824

>  <SCORE.INTRA.DIHEDRAL.0>
16.4846

>  <SCORE.INTRA.POLAR>
0

>  <SCORE.INTRA.POLAR.0>
0

>  <SCORE.INTRA.REPUL>
0

>  <SCORE.INTRA.REPUL.0>
0

>  <SCORE.INTRA.SOLV>
2.92151

>  <SCORE.INTRA.SOLV.lig_0>
-82.6983

>  <SCORE.INTRA.VDW>
-1.91986

>  <SCORE.INTRA.VDW.0>
-2.11466

>  <SCORE.INTRA.norm>
-0.202239

>  <SCORE.RESTR>
0

>  <SCORE.RESTR.CAVITY>
0

>  <SCORE.RESTR.norm>
0

>  <SCORE.SYSTEM>
0

>  <SCORE.SYSTEM.CONST>
0

>  <SCORE.SYSTEM.DIHEDRAL>
0

>  <SCORE.SYSTEM.SOLV>
0

>  <SCORE.SYSTEM.norm>
0

>  <SCORE.heavy>
26

>  <SCORE.norm>
-0.517677

>  <RMSD>
5.580

$$$$
ligand
 OpenBabel11021811423D
libRbt.so/2013.1/901 2013/11/27
 26 27  0  0  0  0  0  0  0  0999 V2000
    5.8690  -15.8599  -90.3645 C   0  0  0  0  0  0  0  0  0  0  0  0
    1.5440  -19.9373  -92.1545 C   0  0  0  0  0  0  0  0  0  0  0  0
   -0.8126  -20.0603  -97.6784 P   0  0  2  0  0  0  0  0  0  0  0  0
   -2.6776  -22.0698  -97.2860 P   0  0  2  0  0  0  0  0  0  0  0  0
    0.6101  -18.0690  -89.7906 C   0  0  0  0  0  0  0  0  0  0  0  0
    2.3761  -16.8976  -91.0827 C   0  0  0  0  0  0  0  0  0  0  0  0
    2.0074  -17.5266  -89.9006 C   0  0  0  0  0  0  0  0  0  0  0  0
    2.9276  -17.5800  -88.8496 C   0  0  0  0  0  0  0  0  0  0  0  0
    2.6825  -18.1446  -87.6668 N   0  0  0  0  0  0  0  0  0  0  0  0
    4.1704  -17.0283  -89.0244 N   0  0  0  0  0  0  0  0  0  0  0  0
    4.5112  -16.4332  -90.2063 C   0  0  0  0  0  0  0  0  0  0  0  0
    3.6329  -16.3537  -91.2393 N   0  0  0  0  0  0  0  0  0  0  0  0
   -1.8005  -18.9157  -97.5686 O   0  5  0  0  0  0  0  0  0  0  0  0
   -3.7736  -21.0473  -97.4856 O   0  0  0  0  0  0  0  0  0  0  0  0
   -1.7812  -17.9993  -92.8963 S   0  0  0  0  0  0  0  0  0  0  0  0
   -1.2260  -17.6414  -91.4063 C   0  0  0  0  0  0  0  0  0  0  0  0
   -0.6041  -20.3050  -99.1705 O   0  0  0  0  0  0  0  0  0  0  0  0
   -3.0342  -23.0730  -96.2079 O   0  5  0  0  0  0  0  0  0  0  0  0
   -0.0570  -18.2878  -91.0517 N   0  0  0  0  0  0  0  0  0  0  0  0
   -1.3889  -21.2759  -96.7861 O   0  0  0  0  0  0  0  0  0  0  0  0
   -2.4356  -22.7700  -98.6077 O   0  0  0  0  0  0  0  0  0  0  0  0
    0.3392  -19.0848  -92.0973 C   0  0  1  0  0  0  0  0  0  0  0  0
   -0.5568  -18.9866  -93.1734 C   0  0  2  0  0  0  0  0  0  0  0  0
   -0.6364  -19.5930  -94.5527 C   0  0  0  0  0  0  0  0  0  0  0  0
    0.4083  -18.9803  -95.4916 C   0  0  0  0  0  0  0  0  0  0  0  0
    0.4691  -19.7405  -96.6922 O   0  0  0  0  0  0  0  0  0  0  0  0
  1 11  1  0  0  0  0
  3 13  1  1  0  0  0
  3 17  2  0  0  0  0
  3 20  1  0  0  0  0
  3 26  1  0  0  0  0
  4 14  1  6  0  0  0
  4 18  1  0  0  0  0
  4 21  2  0  0  0  0
  4 20  1  0  0  0  0
  5 19  1  0  0  0  0
  5  7  1  0  0  0  0
  6  7  2  0  0  0  0
  6 12  1  0  0  0  0
  7  8  1  0  0  0  0
  8  9  1  0  0  0  0
  8 10  2  0  0  0  0
 10 11  1  0  0  0  0
 11 12  2  0  0  0  0
 15 23  1  0  0  0  0
 15 16  1  0  0  0  0
 16 19  1  0  0  0  0
 19 22  1  0  0  0  0
 22  2  1  6  0  0  0
 22 23  1  0  0  0  0
 23 24  1  6  0  0  0
 24 25  1  0  0  0  0
 25 26  1  0  0  0  0
M  CHG  2  13  -1  18  -1
M  END
>  <CHROM.1>
70.84445152,-119.08433512,20.07867328,-56.03705563,106.65962149,169.30429378
55.89678924,29.54359927,0.05080921,-19.21710527,-93.91832929,-0.98427846
-0.44039057,-1.77698975

>  <Name>
ligand

>  <RI>
0

>  <Rbt.Current_Directory>
/home/itssahil/PROJECTS/Mol_Feturizer/New_Systems/rnas/2CKY

>  <Rbt.Executable>
rbdock ($Id: //depot/dev/client3/rdock/2013.1/src/exe/rbdock.cxx#4 $)

>  <Rbt.Library>
libRbt.so (2013.1, Build901 2013/11/27)

>  <Rbt.Parameter_File>
/export/apps/rDock/src/rDock_2013.1_src/data/scripts/dock_solv.prm

>  <Rbt.Receptor>
prm/pocket_docking_8.prm

>  <SCORE>
-25.3161

>  <SCORE.INTER>
-19.6939

>  <SCORE.INTER.CONST>
1

>  <SCORE.INTER.POLAR>
0

>  <SCORE.INTER.ROT>
8

>  <SCORE.INTER.SOLV>
26.0608

>  <SCORE.INTER.VDW>
-30.7496

>  <SCORE.INTER.norm>
-0.75746

>  <SCORE.INTRA>
-5.62218

>  <SCORE.INTRA.DIHEDRAL>
-10.3423

>  <SCORE.INTRA.DIHEDRAL.0>
16.4846

>  <SCORE.INTRA.POLAR>
0

>  <SCORE.INTRA.POLAR.0>
0

>  <SCORE.INTRA.REPUL>
0

>  <SCORE.INTRA.REPUL.0>
0

>  <SCORE.INTRA.SOLV>
1.17441

>  <SCORE.INTRA.SOLV.lig_0>
-82.6983

>  <SCORE.INTRA.VDW>
-1.03824

>  <SCORE.INTRA.VDW.0>
-2.11466

>  <SCORE.INTRA.norm>
-0.216238

>  <SCORE.RESTR>
0

>  <SCORE.RESTR.CAVITY>
0

>  <SCORE.RESTR.norm>
0

>  <SCORE.SYSTEM>
0

>  <SCORE.SYSTEM.CONST>
0

>  <SCORE.SYSTEM.DIHEDRAL>
0

>  <SCORE.SYSTEM.SOLV>
0

>  <SCORE.SYSTEM.norm>
0

>  <SCORE.heavy>
26

>  <SCORE.norm>
-0.973697

>  <RMSD>
5.632

$$$$
ligand
 OpenBabel11021811423D
libRbt.so/2013.1/901 2013/11/27
 26 27  0  0  0  0  0  0  0  0999 V2000
    5.5204  -15.5023  -90.5497 C   0  0  0  0  0  0  0  0  0  0  0  0
    1.5244  -15.4253  -97.5108 C   0  0  0  0  0  0  0  0  0  0  0  0
    2.9292  -11.1452  -97.4851 P   0  0  2  0  0  0  0  0  0  0  0  0
    0.3798  -10.8726  -96.4379 P   0  0  2  0  0  0  0  0  0  0  0  0
    3.1533  -17.2109  -95.4836 C   0  0  0  0  0  0  0  0  0  0  0  0
    4.9406  -16.0976  -94.1695 C   0  0  0  0  0  0  0  0  0  0  0  0
    3.7456  -16.8054  -94.1631 C   0  0  0  0  0  0  0  0  0  0  0  0
    3.1199  -17.0617  -92.9396 C   0  0  0  0  0  0  0  0  0  0  0  0
    1.9667  -17.7185  -92.8105 N   0  0  0  0  0  0  0  0  0  0  0  0
    3.7138  -16.6245  -91.7839 N   0  0  0  0  0  0  0  0  0  0  0  0
    4.9002  -15.9474  -91.8204 C   0  0  0  0  0  0  0  0  0  0  0  0
    5.5233  -15.6715  -92.9952 N   0  0  0  0  0  0  0  0  0  0  0  0
    3.5403  -11.1010  -96.0985 O   0  5  0  0  0  0  0  0  0  0  0  0
   -0.9856  -11.4687  -96.6969 O   0  0  0  0  0  0  0  0  0  0  0  0
    5.3436  -15.6832  -98.3536 S   0  0  0  0  0  0  0  0  0  0  0  0
    4.9926  -16.5305  -97.0064 C   0  0  0  0  0  0  0  0  0  0  0  0
    3.1249   -9.7551  -98.0843 O   0  0  0  0  0  0  0  0  0  0  0  0
    0.4549   -9.4257  -96.8811 O   0  5  0  0  0  0  0  0  0  0  0  0
    3.6648  -16.4905  -96.6249 N   0  0  0  0  0  0  0  0  0  0  0  0
    1.4194  -11.6937  -97.3245 O   0  0  0  0  0  0  0  0  0  0  0  0
    0.6770  -10.9934  -94.9571 O   0  0  0  0  0  0  0  0  0  0  0  0
    2.9716  -15.7202  -97.5259 C   0  0  1  0  0  0  0  0  0  0  0  0
    3.8222  -15.2302  -98.5294 C   0  0  2  0  0  0  0  0  0  0  0  0
    3.6386  -14.3726  -99.7571 C   0  0  0  0  0  0  0  0  0  0  0  0
    2.9104  -13.0669  -99.4206 C   0  0  0  0  0  0  0  0  0  0  0  0
    3.4963  -12.4832  -98.2634 O   0  0  0  0  0  0  0  0  0  0  0  0
  1 11  1  0  0  0  0
  3 13  1  1  0  0  0
  3 17  2  0  0  0  0
  3 20  1  0  0  0  0
  3 26  1  0  0  0  0
  4 14  1  6  0  0  0
  4 18  1  0  0  0  0
  4 21  2  0  0  0  0
  4 20  1  0  0  0  0
  5 19  1  0  0  0  0
  5  7  1  0  0  0  0
  6  7  2  0  0  0  0
  6 12  1  0  0  0  0
  7  8  1  0  0  0  0
  8  9  1  0  0  0  0
  8 10  2  0  0  0  0
 10 11  1  0  0  0  0
 11 12  2  0  0  0  0
 15 23  1  0  0  0  0
 15 16  1  0  0  0  0
 16 19  1  0  0  0  0
 19 22  1  0  0  0  0
 22  2  1  6  0  0  0
 22 23  1  0  0  0  0
 23 24  1  6  0  0  0
 24 25  1  0  0  0  0
 25 26  1  0  0  0  0
M  CHG  2  13  -1  18  -1
M  END
>  <CHROM.1>
60.81574579,62.02327525,-17.75507070,169.08709534,-128.27516676,46.95258540
-174.19265515,162.51844774,2.99798230,-13.86760576,-96.15025153,0.81117892
-1.00285328,1.86405977

>  <Name>
ligand

>  <RI>
0

>  <Rbt.Current_Directory>
/home/itssahil/PROJECTS/Mol_Feturizer/New_Systems/rnas/2CKY

>  <Rbt.Executable>
rbdock ($Id: //depot/dev/client3/rdock/2013.1/src/exe/rbdock.cxx#4 $)

>  <Rbt.Library>
libRbt.so (2013.1, Build901 2013/11/27)

>  <Rbt.Parameter_File>
/export/apps/rDock/src/rDock_2013.1_src/data/scripts/dock_solv.prm

>  <Rbt.Receptor>
prm/pocket_docking_5.prm

>  <SCORE>
-15.6972

>  <SCORE.INTER>
-10.2045

>  <SCORE.INTER.CONST>
1

>  <SCORE.INTER.POLAR>
0

>  <SCORE.INTER.ROT>
8

>  <SCORE.INTER.SOLV>
5.61461

>  <SCORE.INTER.VDW>
-17.6079

>  <SCORE.INTER.norm>
-0.392482

>  <SCORE.INTRA>
-5.49265

>  <SCORE.INTRA.DIHEDRAL>
-10.4763

>  <SCORE.INTRA.DIHEDRAL.0>
16.4846

>  <SCORE.INTRA.POLAR>
0

>  <SCORE.INTRA.POLAR.0>
0

>  <SCORE.INTRA.REPUL>
0

>  <SCORE.INTRA.REPUL.0>
0

>  <SCORE.INTRA.SOLV>
1.76279

>  <SCORE.INTRA.SOLV.lig_0>
-82.6983

>  <SCORE.INTRA.VDW>
-1.13588

>  <SCORE.INTRA.VDW.0>
-2.11466

>  <SCORE.INTRA.norm>
-0.211256

>  <SCORE.RESTR>
0

>  <SCORE.RESTR.CAVITY>
0

>  <SCORE.RESTR.norm>
0

>  <SCORE.SYSTEM>
0

>  <SCORE.SYSTEM.CONST>
0

>  <SCORE.SYSTEM.DIHEDRAL>
0

>  <SCORE.SYSTEM.SOLV>
0

>  <SCORE.SYSTEM.norm>
0

>  <SCORE.heavy>
26

>  <SCORE.norm>
-0.603737

>  <RMSD>
5.664

$$$$
ligand
 OpenBabel11021811423D
libRbt.so/2013.1/901 2013/11/27
 26 27  0  0  0  0  0  0  0  0999 V2000
    5.4357  -15.6630  -90.5463 C   0  0  0  0  0  0  0  0  0  0  0  0
    1.6554  -15.1030  -97.4944 C   0  0  0  0  0  0  0  0  0  0  0  0
    0.6253  -11.4018  -98.5167 P   0  0  2  0  0  0  0  0  0  0  0  0
    0.3072  -10.5627  -95.8966 P   0  0  2  0  0  0  0  0  0  0  0  0
    3.3576  -17.0633  -95.7024 C   0  0  0  0  0  0  0  0  0  0  0  0
    5.0764  -16.0565  -94.2218 C   0  0  0  0  0  0  0  0  0  0  0  0
    3.8717  -16.7394  -94.3278 C   0  0  0  0  0  0  0  0  0  0  0  0
    3.1655  -17.0467  -93.1611 C   0  0  0  0  0  0  0  0  0  0  0  0
    1.9956  -17.6860  -93.1396 N   0  0  0  0  0  0  0  0  0  0  0  0
    3.6923  -16.6826  -91.9490 N   0  0  0  0  0  0  0  0  0  0  0  0
    4.8898  -16.0285  -91.8751 C   0  0  0  0  0  0  0  0  0  0  0  0
    5.5907  -15.7041  -92.9924 N   0  0  0  0  0  0  0  0  0  0  0  0
    0.9712  -10.1293  -99.2646 O   0  5  0  0  0  0  0  0  0  0  0  0
   -0.2138   -9.2692  -96.4813 O   0  0  0  0  0  0  0  0  0  0  0  0
    5.4751  -15.1270  -98.3736 S   0  0  0  0  0  0  0  0  0  0  0  0
    5.1622  -16.1420  -97.1375 C   0  0  0  0  0  0  0  0  0  0  0  0
   -0.8790  -11.6007  -98.6822 O   0  0  0  0  0  0  0  0  0  0  0  0
    1.1960  -10.3184  -94.6941 O   0  5  0  0  0  0  0  0  0  0  0  0
    3.8365  -16.1935  -96.7500 N   0  0  0  0  0  0  0  0  0  0  0  0
    1.2076  -11.2489  -97.0189 O   0  0  0  0  0  0  0  0  0  0  0  0
   -0.8802  -11.4238  -95.5166 O   0  0  0  0  0  0  0  0  0  0  0  0
    3.1116  -15.3444  -97.5493 C   0  0  1  0  0  0  0  0  0  0  0  0
    3.9381  -14.7083  -98.4889 C   0  0  2  0  0  0  0  0  0  0  0  0
    3.7172  -13.7157  -99.6035 C   0  0  0  0  0  0  0  0  0  0  0  0
    3.0931  -12.4184  -99.0784 C   0  0  0  0  0  0  0  0  0  0  0  0
    1.6840  -12.5801  -98.9732 O   0  0  0  0  0  0  0  0  0  0  0  0
  1 11  1  0  0  0  0
  3 13  1  6  0  0  0
  3 17  2  0  0  0  0
  3 20  1  0  0  0  0
  3 26  1  0  0  0  0
  4 14  1  6  0  0  0
  4 18  1  0  0  0  0
  4 21  2  0  0  0  0
  4 20  1  0  0  0  0
  5 19  1  0  0  0  0
  5  7  1  0  0  0  0
  6  7  2  0  0  0  0
  6 12  1  0  0  0  0
  7  8  1  0  0  0  0
  8  9  1  0  0  0  0
  8 10  2  0  0  0  0
 10 11  1  0  0  0  0
 11 12  2  0  0  0  0
 15 23  1  0  0  0  0
 15 16  1  0  0  0  0
 16 19  1  0  0  0  0
 19 22  1  0  0  0  0
 22  2  1  6  0  0  0
 22 23  1  0  0  0  0
 23 24  1  6  0  0  0
 24 25  1  0  0  0  0
 25 26  1  0  0  0  0
M  CHG  2  13  -1  18  -1
M  END
>  <CHROM.1>
87.92179800,66.08703751,-24.53942826,-49.23711815,-121.73300413,-83.11443895
-176.93002475,45.84122883,2.54779185,-13.70697279,-96.30510425,0.69917263
-0.86520395,1.77360930

>  <Name>
ligand

>  <RI>
0

>  <Rbt.Current_Directory>
/home/itssahil/PROJECTS/Mol_Feturizer/New_Systems/rnas/2CKY

>  <Rbt.Executable>
rbdock ($Id: //depot/dev/client3/rdock/2013.1/src/exe/rbdock.cxx#4 $)

>  <Rbt.Library>
libRbt.so (2013.1, Build901 2013/11/27)

>  <Rbt.Parameter_File>
/export/apps/rDock/src/rDock_2013.1_src/data/scripts/dock_solv.prm

>  <Rbt.Receptor>
prm/pocket_docking_8.prm

>  <SCORE>
-16.1595

>  <SCORE.INTER>
-10.8353

>  <SCORE.INTER.CONST>
1

>  <SCORE.INTER.POLAR>
0

>  <SCORE.INTER.ROT>
8

>  <SCORE.INTER.SOLV>
9.12494

>  <SCORE.INTER.VDW>
-19.1985

>  <SCORE.INTER.norm>
-0.416741

>  <SCORE.INTRA>
-5.32426

>  <SCORE.INTRA.DIHEDRAL>
-8.70267

>  <SCORE.INTRA.DIHEDRAL.0>
16.4846

>  <SCORE.INTRA.POLAR>
0

>  <SCORE.INTRA.POLAR.0>
0

>  <SCORE.INTRA.REPUL>
0

>  <SCORE.INTRA.REPUL.0>
0

>  <SCORE.INTRA.SOLV>
-0.00725525

>  <SCORE.INTRA.SOLV.lig_0>
-82.6983

>  <SCORE.INTRA.VDW>
-0.969303

>  <SCORE.INTRA.VDW.0>
-2.11466

>  <SCORE.INTRA.norm>
-0.204779

>  <SCORE.RESTR>
0

>  <SCORE.RESTR.CAVITY>
0

>  <SCORE.RESTR.norm>
0

>  <SCORE.SYSTEM>
0

>  <SCORE.SYSTEM.CONST>
0

>  <SCORE.SYSTEM.DIHEDRAL>
0

>  <SCORE.SYSTEM.SOLV>
0

>  <SCORE.SYSTEM.norm>
0

>  <SCORE.heavy>
26

>  <SCORE.norm>
-0.621521

>  <RMSD>
5.667

$$$$
ligand
 OpenBabel11021811423D
libRbt.so/2013.1/901 2013/11/27
 26 27  0  0  0  0  0  0  0  0999 V2000
    5.8944  -16.0015  -90.1760 C   0  0  0  0  0  0  0  0  0  0  0  0
    3.7767  -16.7728  -96.5372 C   0  0  0  0  0  0  0  0  0  0  0  0
    2.2432  -17.0656 -100.3926 P   0  0  2  0  0  0  0  0  0  0  0  0
    0.8226  -19.0290  -99.0520 P   0  0  2  0  0  0  0  0  0  0  0  0
    3.3599  -14.0810  -94.9461 C   0  0  0  0  0  0  0  0  0  0  0  0
    4.9810  -15.5261  -93.7444 C   0  0  0  0  0  0  0  0  0  0  0  0
    3.9773  -14.5694  -93.6658 C   0  0  0  0  0  0  0  0  0  0  0  0
    3.6236  -14.0643  -92.4112 C   0  0  0  0  0  0  0  0  0  0  0  0
    2.6864  -13.1366  -92.2138 N   0  0  0  0  0  0  0  0  0  0  0  0
    4.2635  -14.5420  -91.2969 N   0  0  0  0  0  0  0  0  0  0  0  0
    5.2339  -15.4980  -91.4040 C   0  0  0  0  0  0  0  0  0  0  0  0
    5.6083  -15.9965  -92.6106 N   0  0  0  0  0  0  0  0  0  0  0  0
    1.2000  -15.9745 -100.5309 O   0  5  0  0  0  0  0  0  0  0  0  0
    0.6667  -19.5114  -97.6273 O   0  0  0  0  0  0  0  0  0  0  0  0
    5.7935  -13.7476  -98.0014 S   0  0  0  0  0  0  0  0  0  0  0  0
    4.9198  -13.2844  -96.7059 C   0  0  0  0  0  0  0  0  0  0  0  0
    2.2250  -17.8448 -101.7050 O   0  0  0  0  0  0  0  0  0  0  0  0
    1.3437  -20.1226  -99.9620 O   0  5  0  0  0  0  0  0  0  0  0  0
    4.1659  -14.2869  -96.1257 N   0  0  0  0  0  0  0  0  0  0  0  0
    1.9162  -17.8694  -99.0314 O   0  0  0  0  0  0  0  0  0  0  0  0
   -0.5245  -18.5303  -99.5341 O   0  0  0  0  0  0  0  0  0  0  0  0
    4.3710  -15.4513  -96.8239 C   0  0  1  0  0  0  0  0  0  0  0  0
    5.2677  -15.2512  -97.8852 C   0  0  2  0  0  0  0  0  0  0  0  0
    5.8691  -16.1316  -98.9528 C   0  0  0  0  0  0  0  0  0  0  0  0
    4.8294  -17.1000  -99.5269 C   0  0  0  0  0  0  0  0  0  0  0  0
    3.6391  -16.3864  -99.8378 O   0  0  0  0  0  0  0  0  0  0  0  0
  1 11  1  0  0  0  0
  3 13  1  6  0  0  0
  3 17  2  0  0  0  0
  3 20  1  0  0  0  0
  3 26  1  0  0  0  0
  4 14  1  1  0  0  0
  4 18  1  0  0  0  0
  4 21  2  0  0  0  0
  4 20  1  0  0  0  0
  5 19  1  0  0  0  0
  5  7  1  0  0  0  0
  6  7  2  0  0  0  0
  6 12  1  0  0  0  0
  7  8  1  0  0  0  0
  8  9  1  0  0  0  0
  8 10  2  0  0  0  0
 10 11  1  0  0  0  0
 11 12  2  0  0  0  0
 15 23  1  0  0  0  0
 15 16  1  0  0  0  0
 16 19  1  0  0  0  0
 19 22  1  0  0  0  0
 22  2  1  1  0  0  0
 22 23  1  0  0  0  0
 23 24  1  1  0  0  0
 24 25  1  0  0  0  0
 25 26  1  0  0  0  0
M  CHG  2  13  -1  18  -1
M  END
>  <CHROM.1>
83.46299601,-100.63454815,-20.95929298,-175.76945059,-139.36909759,47.58582214
-176.15344341,177.15616019,3.38031545,-16.23792742,-97.03759683,1.03530071
0.78903685,1.53193322

>  <Name>
ligand

>  <RI>
0

>  <Rbt.Current_Directory>
/home/itssahil/PROJECTS/Mol_Feturizer/New_Systems/rnas/2CKY

>  <Rbt.Executable>
rbdock ($Id: //depot/dev/client3/rdock/2013.1/src/exe/rbdock.cxx#4 $)

>  <Rbt.Library>
libRbt.so (2013.1, Build901 2013/11/27)

>  <Rbt.Parameter_File>
/export/apps/rDock/src/rDock_2013.1_src/data/scripts/dock_solv.prm

>  <Rbt.Receptor>
prm/pocket_docking_7.prm

>  <SCORE>
-20.8292

>  <SCORE.INTER>
-15.1729

>  <SCORE.INTER.CONST>
1

>  <SCORE.INTER.POLAR>
0

>  <SCORE.INTER.ROT>
8

>  <SCORE.INTER.SOLV>
11.5821

>  <SCORE.INTER.VDW>
-22.9093

>  <SCORE.INTER.norm>
-0.583572

>  <SCORE.INTRA>
-5.65628

>  <SCORE.INTRA.DIHEDRAL>
-10.4296

>  <SCORE.INTRA.DIHEDRAL.0>
16.4846

>  <SCORE.INTRA.POLAR>
0

>  <SCORE.INTRA.POLAR.0>
0

>  <SCORE.INTRA.REPUL>
0

>  <SCORE.INTRA.REPUL.0>
0

>  <SCORE.INTRA.SOLV>
1.89392

>  <SCORE.INTRA.SOLV.lig_0>
-82.6983

>  <SCORE.INTRA.VDW>
-1.38845

>  <SCORE.INTRA.VDW.0>
-2.11466

>  <SCORE.INTRA.norm>
-0.217549

>  <SCORE.RESTR>
0

>  <SCORE.RESTR.CAVITY>
0

>  <SCORE.RESTR.norm>
0

>  <SCORE.SYSTEM>
0

>  <SCORE.SYSTEM.CONST>
0

>  <SCORE.SYSTEM.DIHEDRAL>
0

>  <SCORE.SYSTEM.SOLV>
0

>  <SCORE.SYSTEM.norm>
0

>  <SCORE.heavy>
26

>  <SCORE.norm>
-0.801122

>  <RMSD>
5.824

$$$$
ligand
 OpenBabel11021811423D
libRbt.so/2013.1/901 2013/11/27
 26 27  0  0  0  0  0  0  0  0999 V2000
    2.5732  -12.8328  -91.1783 C   0  0  0  0  0  0  0  0  0  0  0  0
   -2.9027  -11.8552  -97.8392 C   0  0  0  0  0  0  0  0  0  0  0  0
   -1.3543  -16.3929  -99.4873 P   0  0  2  0  0  0  0  0  0  0  0  0
    0.8053  -15.3718 -100.8888 P   0  0  2  0  0  0  0  0  0  0  0  0
   -1.5461  -11.6841  -94.9964 C   0  0  0  0  0  0  0  0  0  0  0  0
   -0.6778  -11.8431  -92.6766 C   0  0  0  0  0  0  0  0  0  0  0  0
   -0.4269  -11.9746  -94.0363 C   0  0  0  0  0  0  0  0  0  0  0  0
    0.8315  -12.4214  -94.4499 C   0  0  0  0  0  0  0  0  0  0  0  0
    1.1827  -12.5980  -95.7240 N   0  0  0  0  0  0  0  0  0  0  0  0
    1.7841  -12.6968  -93.5033 N   0  0  0  0  0  0  0  0  0  0  0  0
    1.5141  -12.5391  -92.1731 C   0  0  0  0  0  0  0  0  0  0  0  0
    0.2961  -12.1207  -91.7415 N   0  0  0  0  0  0  0  0  0  0  0  0
   -1.6217  -16.9424  -98.1000 O   0  5  0  0  0  0  0  0  0  0  0  0
   -0.0577  -14.2076 -101.3208 O   0  0  0  0  0  0  0  0  0  0  0  0
   -2.9305  -15.2456  -95.8725 S   0  0  0  0  0  0  0  0  0  0  0  0
   -2.1911  -14.0818  -95.0036 C   0  0  0  0  0  0  0  0  0  0  0  0
   -1.7978  -17.4740 -100.4693 O   0  0  0  0  0  0  0  0  0  0  0  0
    0.7634  -16.5057 -101.8929 O   0  5  0  0  0  0  0  0  0  0  0  0
   -2.1254  -12.8481  -95.6232 N   0  0  0  0  0  0  0  0  0  0  0  0
    0.1899  -15.9237  -99.5258 O   0  0  0  0  0  0  0  0  0  0  0  0
    2.2236  -14.8701 -100.7090 O   0  0  0  0  0  0  0  0  0  0  0  0
   -2.7318  -12.9403  -96.8517 C   0  0  1  0  0  0  0  0  0  0  0  0
   -3.2166  -14.2381  -97.0783 C   0  0  2  0  0  0  0  0  0  0  0  0
   -3.9619  -14.9165  -98.2011 C   0  0  0  0  0  0  0  0  0  0  0  0
   -3.3657  -14.5525  -99.5651 C   0  0  0  0  0  0  0  0  0  0  0  0
   -1.9794  -14.8700  -99.5754 O   0  0  0  0  0  0  0  0  0  0  0  0
  1 11  1  0  0  0  0
  3 13  1  1  0  0  0
  3 17  2  0  0  0  0
  3 20  1  0  0  0  0
  3 26  1  0  0  0  0
  4 14  1  6  0  0  0
  4 18  1  0  0  0  0
  4 21  2  0  0  0  0
  4 20  1  0  0  0  0
  5 19  1  0  0  0  0
  5  7  1  0  0  0  0
  6  7  2  0  0  0  0
  6 12  1  0  0  0  0
  7  8  1  0  0  0  0
  8  9  1  0  0  0  0
  8 10  2  0  0  0  0
 10 11  1  0  0  0  0
 11 12  2  0  0  0  0
 15 23  1  0  0  0  0
 15 16  1  0  0  0  0
 16 19  1  0  0  0  0
 19 22  1  0  0  0  0
 22  2  1  1  0  0  0
 22 23  1  0  0  0  0
 23 24  1  1  0  0  0
 24 25  1  0  0  0  0
 25 26  1  0  0  0  0
M  CHG  2  13  -1  18  -1
M  END
>  <CHROM.1>
176.53503532,31.02989175,-106.74169347,56.71018372,-135.56247666,55.58187411
66.23265919,-68.84462493,-0.82192638,-14.29548045,-97.26755292,-1.45756957
-0.06733875,-1.99718950

>  <Name>
ligand

>  <RI>
0

>  <Rbt.Current_Directory>
/home/itssahil/PROJECTS/Mol_Feturizer/New_Systems/rnas/2CKY

>  <Rbt.Executable>
rbdock ($Id: //depot/dev/client3/rdock/2013.1/src/exe/rbdock.cxx#4 $)

>  <Rbt.Library>
libRbt.so (2013.1, Build901 2013/11/27)

>  <Rbt.Parameter_File>
/export/apps/rDock/src/rDock_2013.1_src/data/scripts/dock_solv.prm

>  <Rbt.Receptor>
prm/pocket_docking_6.prm

>  <SCORE>
-17.6511

>  <SCORE.INTER>
-10.7769

>  <SCORE.INTER.CONST>
1

>  <SCORE.INTER.POLAR>
0

>  <SCORE.INTER.ROT>
8

>  <SCORE.INTER.SOLV>
11.3024

>  <SCORE.INTER.VDW>
-19.8854

>  <SCORE.INTER.norm>
-0.414495

>  <SCORE.INTRA>
-6.87424

>  <SCORE.INTRA.DIHEDRAL>
-11.5622

>  <SCORE.INTRA.DIHEDRAL.0>
16.4846

>  <SCORE.INTRA.POLAR>
0

>  <SCORE.INTRA.POLAR.0>
0

>  <SCORE.INTRA.REPUL>
0

>  <SCORE.INTRA.REPUL.0>
0

>  <SCORE.INTRA.SOLV>
1.79406

>  <SCORE.INTRA.SOLV.lig_0>
-82.6983

>  <SCORE.INTRA.VDW>
-1.99018

>  <SCORE.INTRA.VDW.0>
-2.11466

>  <SCORE.INTRA.norm>
-0.264394

>  <SCORE.RESTR>
0

>  <SCORE.RESTR.CAVITY>
0

>  <SCORE.RESTR.norm>
0

>  <SCORE.SYSTEM>
0

>  <SCORE.SYSTEM.CONST>
0

>  <SCORE.SYSTEM.DIHEDRAL>
0

>  <SCORE.SYSTEM.SOLV>
0

>  <SCORE.SYSTEM.norm>
0

>  <SCORE.heavy>
26

>  <SCORE.norm>
-0.678889

>  <RMSD>
5.884

$$$$
ligand
 OpenBabel11021811423D
libRbt.so/2013.1/901 2013/11/27
 26 27  0  0  0  0  0  0  0  0999 V2000
    1.1490  -13.4440  -91.9280 C   0  0  0  0  0  0  0  0  0  0  0  0
   -1.1896  -12.5687  -98.7958 C   0  0  0  0  0  0  0  0  0  0  0  0
    1.8294  -14.8400 -100.0623 P   0  0  2  0  0  0  0  0  0  0  0  0
    3.4536  -12.7818  -99.1699 P   0  0  2  0  0  0  0  0  0  0  0  0
   -2.7454  -12.6122  -96.0519 C   0  0  0  0  0  0  0  0  0  0  0  0
   -1.4220  -11.8614  -94.0910 C   0  0  0  0  0  0  0  0  0  0  0  0
   -1.6997  -12.8707  -95.0038 C   0  0  0  0  0  0  0  0  0  0  0  0
   -1.0388  -14.0959  -94.8766 C   0  0  0  0  0  0  0  0  0  0  0  0
   -1.2327  -15.1394  -95.6836 N   0  0  0  0  0  0  0  0  0  0  0  0
   -0.1238  -14.2569  -93.8685 N   0  0  0  0  0  0  0  0  0  0  0  0
    0.1429  -13.2386  -92.9972 C   0  0  0  0  0  0  0  0  0  0  0  0
   -0.4944  -12.0427  -93.0876 N   0  0  0  0  0  0  0  0  0  0  0  0
    2.0371  -15.4748  -98.7015 O   0  5  0  0  0  0  0  0  0  0  0  0
    4.4940  -13.8533  -99.4069 O   0  0  0  0  0  0  0  0  0  0  0  0
   -3.5607  -15.6615  -98.3770 S   0  0  0  0  0  0  0  0  0  0  0  0
   -3.6161  -14.7101  -97.0549 C   0  0  0  0  0  0  0  0  0  0  0  0
    2.6939  -15.6309 -101.0406 O   0  0  0  0  0  0  0  0  0  0  0  0
    3.1283  -12.6297  -97.6980 O   0  5  0  0  0  0  0  0  0  0  0  0
   -2.8019  -13.5945  -97.1080 N   0  0  0  0  0  0  0  0  0  0  0  0
    2.1209  -13.2603  -99.9021 O   0  0  0  0  0  0  0  0  0  0  0  0
    3.9768  -11.4784  -99.7385 O   0  0  0  0  0  0  0  0  0  0  0  0
   -2.1443  -13.5872  -98.3134 C   0  0  1  0  0  0  0  0  0  0  0  0
   -2.5066  -14.6978  -99.0918 C   0  0  2  0  0  0  0  0  0  0  0  0
   -2.1395  -15.2017 -100.4658 C   0  0  0  0  0  0  0  0  0  0  0  0
   -0.7069  -15.7449 -100.4954 C   0  0  0  0  0  0  0  0  0  0  0  0
    0.2096  -14.6717 -100.3185 O   0  0  0  0  0  0  0  0  0  0  0  0
  1 11  1  0  0  0  0
  3 13  1  1  0  0  0
  3 17  2  0  0  0  0
  3 20  1  0  0  0  0
  3 26  1  0  0  0  0
  4 14  1  6  0  0  0
  4 18  1  0  0  0  0
  4 21  2  0  0  0  0
  4 20  1  0  0  0  0
  5 19  1  0  0  0  0
  5  7  1  0  0  0  0
  6  7  2  0  0  0  0
  6 12  1  0  0  0  0
  7  8  1  0  0  0  0
  8  9  1  0  0  0  0
  8 10  2  0  0  0  0
 10 11  1  0  0  0  0
 11 12  2  0  0  0  0
 15 23  1  0  0  0  0
 15 16  1  0  0  0  0
 16 19  1  0  0  0  0
 19 22  1  0  0  0  0
 22  2  1  6  0  0  0
 22 23  1  0  0  0  0
 23 24  1  6  0  0  0
 24 25  1  0  0  0  0
 25 26  1  0  0  0  0
M  CHG  2  13  -1  18  -1
M  END
>  <CHROM.1>
48.99935277,91.16594718,168.85719519,29.31830903,-108.74793578,-67.98430012
170.34982588,-67.37761721,0.13456844,-13.92516256,-97.76427595,-2.31816667
-0.26266814,-1.87043268

>  <Name>
ligand

>  <RI>
0

>  <Rbt.Current_Directory>
/home/itssahil/PROJECTS/Mol_Feturizer/New_Systems/rnas/2CKY

>  <Rbt.Executable>
rbdock ($Id: //depot/dev/client3/rdock/2013.1/src/exe/rbdock.cxx#4 $)

>  <Rbt.Library>
libRbt.so (2013.1, Build901 2013/11/27)

>  <Rbt.Parameter_File>
/export/apps/rDock/src/rDock_2013.1_src/data/scripts/dock_solv.prm

>  <Rbt.Receptor>
prm/pocket_docking_5.prm

>  <SCORE>
-12.7956

>  <SCORE.INTER>
-8.57578

>  <SCORE.INTER.CONST>
1

>  <SCORE.INTER.POLAR>
0

>  <SCORE.INTER.ROT>
8

>  <SCORE.INTER.SOLV>
8.40066

>  <SCORE.INTER.VDW>
-17.4507

>  <SCORE.INTER.norm>
-0.329838

>  <SCORE.INTRA>
-4.25837

>  <SCORE.INTRA.DIHEDRAL>
-9.5131

>  <SCORE.INTRA.DIHEDRAL.0>
16.4846

>  <SCORE.INTRA.POLAR>
0

>  <SCORE.INTRA.POLAR.0>
0

>  <SCORE.INTRA.REPUL>
0

>  <SCORE.INTRA.REPUL.0>
0

>  <SCORE.INTRA.SOLV>
4.54019

>  <SCORE.INTRA.SOLV.lig_0>
-82.6983

>  <SCORE.INTRA.VDW>
-1.77192

>  <SCORE.INTRA.VDW.0>
-2.11466

>  <SCORE.INTRA.norm>
-0.163784

>  <SCORE.RESTR>
0.0385931

>  <SCORE.RESTR.CAVITY>
0.0385931

>  <SCORE.RESTR.norm>
0.00148435

>  <SCORE.SYSTEM>
0

>  <SCORE.SYSTEM.CONST>
0

>  <SCORE.SYSTEM.DIHEDRAL>
0

>  <SCORE.SYSTEM.SOLV>
0

>  <SCORE.SYSTEM.norm>
0

>  <SCORE.heavy>
26

>  <SCORE.norm>
-0.492137

>  <RMSD>
6.098

$$$$
ligand
 OpenBabel11021811423D
libRbt.so/2013.1/901 2013/11/27
 26 27  0  0  0  0  0  0  0  0999 V2000
   -1.5352  -17.1905  -95.7199 C   0  0  0  0  0  0  0  0  0  0  0  0
    2.8314  -18.0801  -91.9254 C   0  0  0  0  0  0  0  0  0  0  0  0
    3.2969  -14.0324  -92.1503 P   0  0  2  0  0  0  0  0  0  0  0  0
    4.1830  -15.2639  -94.4673 P   0  0  2  0  0  0  0  0  0  0  0  0
    0.2409  -19.4527  -90.7607 C   0  0  0  0  0  0  0  0  0  0  0  0
    0.2988  -19.2521  -93.2339 C   0  0  0  0  0  0  0  0  0  0  0  0
   -0.2408  -18.8122  -92.0321 C   0  0  0  0  0  0  0  0  0  0  0  0
   -1.2423  -17.8372  -92.0590 C   0  0  0  0  0  0  0  0  0  0  0  0
   -1.8420  -17.3486  -90.9731 N   0  0  0  0  0  0  0  0  0  0  0  0
   -1.6466  -17.3317  -93.2675 N   0  0  0  0  0  0  0  0  0  0  0  0
   -1.0830  -17.7702  -94.4326 C   0  0  0  0  0  0  0  0  0  0  0  0
   -0.1187  -18.7266  -94.4379 N   0  0  0  0  0  0  0  0  0  0  0  0
    1.9733  -13.5163  -91.6213 O   0  5  0  0  0  0  0  0  0  0  0  0
    5.2711  -15.8489  -93.5953 O   0  0  0  0  0  0  0  0  0  0  0  0
    2.4287  -17.6546  -88.0498 S   0  0  0  0  0  0  0  0  0  0  0  0
    1.1809  -18.5005  -88.6691 C   0  0  0  0  0  0  0  0  0  0  0  0
    4.2192  -12.8205  -92.2529 O   0  0  0  0  0  0  0  0  0  0  0  0
    4.6417  -14.0009  -95.1674 O   0  5  0  0  0  0  0  0  0  0  0  0
    1.2324  -18.6937  -90.0367 N   0  0  0  0  0  0  0  0  0  0  0  0
    2.9820  -14.8594  -93.5004 O   0  0  0  0  0  0  0  0  0  0  0  0
    3.7690  -16.3141  -95.4780 O   0  0  0  0  0  0  0  0  0  0  0  0
    2.3720  -18.1009  -90.5218 C   0  0  1  0  0  0  0  0  0  0  0  0
    3.1067  -17.4998  -89.4876 C   0  0  2  0  0  0  0  0  0  0  0  0
    4.4070  -16.7388  -89.4070 C   0  0  0  0  0  0  0  0  0  0  0  0
    4.2495  -15.3094  -89.9365 C   0  0  0  0  0  0  0  0  0  0  0  0
    3.7362  -15.3500  -91.2624 O   0  0  0  0  0  0  0  0  0  0  0  0
  1 11  1  0  0  0  0
  3 13  1  1  0  0  0
  3 17  2  0  0  0  0
  3 20  1  0  0  0  0
  3 26  1  0  0  0  0
  4 14  1  1  0  0  0
  4 18  1  0  0  0  0
  4 21  2  0  0  0  0
  4 20  1  0  0  0  0
  5 19  1  0  0  0  0
  5  7  1  0  0  0  0
  6  7  2  0  0  0  0
  6 12  1  0  0  0  0
  7  8  1  0  0  0  0
  8  9  1  0  0  0  0
  8 10  2  0  0  0  0
 10 11  1  0  0  0  0
 11 12  2  0  0  0  0
 15 23  1  0  0  0  0
 15 16  1  0  0  0  0
 16 19  1  0  0  0  0
 19 22  1  0  0  0  0
 22  2  1  1  0  0  0
 22 23  1  0  0  0  0
 23 24  1  1  0  0  0
 24 25  1  0  0  0  0
 25 26  1  0  0  0  0
M  CHG  2  13  -1  18  -1
M  END
>  <CHROM.1>
166.88716116,134.83679629,99.71995158,47.17350176,-105.02002625,-55.62251844
174.45146153,-74.88803164,2.14890812,-16.53042957,-92.08558463,2.60867533
0.62096519,1.89870309

>  <Name>
ligand

>  <RI>
0

>  <Rbt.Current_Directory>
/home/itssahil/PROJECTS/Mol_Feturizer/New_Systems/rnas/2CKY

>  <Rbt.Executable>
rbdock ($Id: //depot/dev/client3/rdock/2013.1/src/exe/rbdock.cxx#4 $)

>  <Rbt.Library>
libRbt.so (2013.1, Build901 2013/11/27)

>  <Rbt.Parameter_File>
/export/apps/rDock/src/rDock_2013.1_src/data/scripts/dock_solv.prm

>  <Rbt.Receptor>
prm/pocket_docking_7.prm

>  <SCORE>
-22.2611

>  <SCORE.INTER>
-15.0892

>  <SCORE.INTER.CONST>
1

>  <SCORE.INTER.POLAR>
0

>  <SCORE.INTER.ROT>
8

>  <SCORE.INTER.SOLV>
24.1252

>  <SCORE.INTER.VDW>
-27.0345

>  <SCORE.INTER.norm>
-0.580354

>  <SCORE.INTRA>
-7.17184

>  <SCORE.INTRA.DIHEDRAL>
-10.6392

>  <SCORE.INTRA.DIHEDRAL.0>
16.4846

>  <SCORE.INTRA.POLAR>
0

>  <SCORE.INTRA.POLAR.0>
0

>  <SCORE.INTRA.REPUL>
0

>  <SCORE.INTRA.REPUL.0>
0

>  <SCORE.INTRA.SOLV>
0.322393

>  <SCORE.INTRA.SOLV.lig_0>
-82.6983

>  <SCORE.INTRA.VDW>
-2.01345

>  <SCORE.INTRA.VDW.0>
-2.11466

>  <SCORE.INTRA.norm>
-0.27584

>  <SCORE.RESTR>
0

>  <SCORE.RESTR.CAVITY>
0

>  <SCORE.RESTR.norm>
0

>  <SCORE.SYSTEM>
0

>  <SCORE.SYSTEM.CONST>
0

>  <SCORE.SYSTEM.DIHEDRAL>
0

>  <SCORE.SYSTEM.SOLV>
0

>  <SCORE.SYSTEM.norm>
0

>  <SCORE.heavy>
26

>  <SCORE.norm>
-0.856194

>  <RMSD>
6.139

$$$$
ligand
 OpenBabel11021811423D
libRbt.so/2013.1/901 2013/11/27
 26 27  0  0  0  0  0  0  0  0999 V2000
   -0.8094  -16.9692  -92.4065 C   0  0  0  0  0  0  0  0  0  0  0  0
   -0.1406  -13.3549  -99.4035 C   0  0  0  0  0  0  0  0  0  0  0  0
    2.6512  -16.0326  -99.4856 P   0  0  2  0  0  0  0  0  0  0  0  0
    5.1036  -16.1131  -98.2012 P   0  0  2  0  0  0  0  0  0  0  0  0
   -2.2664  -14.4243  -97.3326 C   0  0  0  0  0  0  0  0  0  0  0  0
   -2.1731  -16.3829  -95.8110 C   0  0  0  0  0  0  0  0  0  0  0  0
   -1.8851  -15.0397  -96.0156 C   0  0  0  0  0  0  0  0  0  0  0  0
   -1.2080  -14.3351  -95.0159 C   0  0  0  0  0  0  0  0  0  0  0  0
   -0.8671  -13.0492  -95.1051 N   0  0  0  0  0  0  0  0  0  0  0  0
   -0.8670  -14.9852  -93.8581 N   0  0  0  0  0  0  0  0  0  0  0  0
   -1.1813  -16.3027  -93.6774 C   0  0  0  0  0  0  0  0  0  0  0  0
   -1.8255  -17.0161  -94.6369 N   0  0  0  0  0  0  0  0  0  0  0  0
    2.6557  -14.5232  -99.3443 O   0  5  0  0  0  0  0  0  0  0  0  0
    6.4394  -16.7940  -98.3974 O   0  0  0  0  0  0  0  0  0  0  0  0
   -1.5032  -16.9317 -100.2480 S   0  0  0  0  0  0  0  0  0  0  0  0
   -2.1802  -16.3661  -98.8776 C   0  0  0  0  0  0  0  0  0  0  0  0
    1.7023  -16.5606  -98.4130 O   0  0  0  0  0  0  0  0  0  0  0  0
    4.4040  -16.5980  -96.9479 O   0  5  0  0  0  0  0  0  0  0  0  0
   -1.7517  -15.1093  -98.4942 N   0  0  0  0  0  0  0  0  0  0  0  0
    4.1892  -16.5211  -99.4416 O   0  0  0  0  0  0  0  0  0  0  0  0
    5.3383  -14.6176  -98.1368 O   0  0  0  0  0  0  0  0  0  0  0  0
   -0.8382  -14.6568  -99.4141 C   0  0  1  0  0  0  0  0  0  0  0  0
   -0.6379  -15.6020 -100.4324 C   0  0  2  0  0  0  0  0  0  0  0  0
    0.2052  -15.6595 -101.6823 C   0  0  0  0  0  0  0  0  0  0  0  0
    1.1846  -16.8373 -101.6398 C   0  0  0  0  0  0  0  0  0  0  0  0
    2.4166  -16.4078 -101.0736 O   0  0  0  0  0  0  0  0  0  0  0  0
  1 11  1  0  0  0  0
  3 13  1  1  0  0  0
  3 17  2  0  0  0  0
  3 20  1  0  0  0  0
  3 26  1  0  0  0  0
  4 14  1  6  0  0  0
  4 18  1  0  0  0  0
  4 21  2  0  0  0  0
  4 20  1  0  0  0  0
  5 19  1  0  0  0  0
  5  7  1  0  0  0  0
  6  7  2  0  0  0  0
  6 12  1  0  0  0  0
  7  8  1  0  0  0  0
  8  9  1  0  0  0  0
  8 10  2  0  0  0  0
 10 11  1  0  0  0  0
 11 12  2  0  0  0  0
 15 23  1  0  0  0  0
 15 16  1  0  0  0  0
 16 19  1  0  0  0  0
 19 22  1  0  0  0  0
 22  2  1  6  0  0  0
 22 23  1  0  0  0  0
 23 24  1  6  0  0  0
 24 25  1  0  0  0  0
 25 26  1  0  0  0  0
M  CHG  2  13  -1  18  -1
M  END
>  <CHROM.1>
55.28057217,68.45699634,-54.43011017,175.98181292,-60.25540706,-91.42179561
71.19257103,-101.75677988,0.96589489,-15.76283297,-98.06417960,-2.56843864
0.07377100,-1.60678435

>  <Name>
ligand

>  <RI>
0

>  <Rbt.Current_Directory>
/home/itssahil/PROJECTS/Mol_Feturizer/New_Systems/rnas/2CKY

>  <Rbt.Executable>
rbdock ($Id: //depot/dev/client3/rdock/2013.1/src/exe/rbdock.cxx#4 $)

>  <Rbt.Library>
libRbt.so (2013.1, Build901 2013/11/27)

>  <Rbt.Parameter_File>
/export/apps/rDock/src/rDock_2013.1_src/data/scripts/dock_solv.prm

>  <Rbt.Receptor>
prm/pocket_docking_4.prm

>  <SCORE>
-12.1061

>  <SCORE.INTER>
-10.2796

>  <SCORE.INTER.CONST>
1

>  <SCORE.INTER.POLAR>
0

>  <SCORE.INTER.ROT>
8

>  <SCORE.INTER.SOLV>
12.0357

>  <SCORE.INTER.VDW>
-19.7983

>  <SCORE.INTER.norm>
-0.395368

>  <SCORE.INTRA>
-1.82648

>  <SCORE.INTRA.DIHEDRAL>
-5.89646

>  <SCORE.INTRA.DIHEDRAL.0>
16.4846

>  <SCORE.INTRA.POLAR>
0

>  <SCORE.INTRA.POLAR.0>
0

>  <SCORE.INTRA.REPUL>
0

>  <SCORE.INTRA.REPUL.0>
0

>  <SCORE.INTRA.SOLV>
6.37511

>  <SCORE.INTRA.SOLV.lig_0>
-82.6983

>  <SCORE.INTRA.VDW>
-2.06581

>  <SCORE.INTRA.VDW.0>
-2.11466

>  <SCORE.INTRA.norm>
-0.0702492

>  <SCORE.RESTR>
0

>  <SCORE.RESTR.CAVITY>
0

>  <SCORE.RESTR.norm>
0

>  <SCORE.SYSTEM>
0

>  <SCORE.SYSTEM.CONST>
0

>  <SCORE.SYSTEM.DIHEDRAL>
0

>  <SCORE.SYSTEM.SOLV>
0

>  <SCORE.SYSTEM.norm>
0

>  <SCORE.heavy>
26

>  <SCORE.norm>
-0.465618

>  <RMSD>
6.160

$$$$
ligand
 OpenBabel11021811423D
libRbt.so/2013.1/901 2013/11/27
 26 27  0  0  0  0  0  0  0  0999 V2000
    1.2352  -18.8622  -93.7612 C   0  0  0  0  0  0  0  0  0  0  0  0
    0.0542  -18.1657 -100.1136 C   0  0  0  0  0  0  0  0  0  0  0  0
    1.6901  -12.8169  -99.1787 P   0  0  2  0  0  0  0  0  0  0  0  0
    2.7736  -10.4295 -100.0713 P   0  0  2  0  0  0  0  0  0  0  0  0
   -2.4118  -18.3740  -98.1573 C   0  0  0  0  0  0  0  0  0  0  0  0
   -0.8752  -19.6761  -96.7068 C   0  0  0  0  0  0  0  0  0  0  0  0
   -1.4813  -18.4567  -96.9800 C   0  0  0  0  0  0  0  0  0  0  0  0
   -1.1605  -17.3512  -96.1867 C   0  0  0  0  0  0  0  0  0  0  0  0
   -1.6679  -16.1306  -96.3616 N   0  0  0  0  0  0  0  0  0  0  0  0
   -0.2739  -17.5088  -95.1530 N   0  0  0  0  0  0  0  0  0  0  0  0
    0.2916  -18.7259  -94.8963 C   0  0  0  0  0  0  0  0  0  0  0  0
    0.0099  -19.8138  -95.6591 N   0  0  0  0  0  0  0  0  0  0  0  0
    0.9652  -12.3088  -97.9481 O   0  5  0  0  0  0  0  0  0  0  0  0
    4.0919  -10.9347 -100.6131 O   0  0  0  0  0  0  0  0  0  0  0  0
   -2.3633  -15.0856 -100.2910 S   0  0  0  0  0  0  0  0  0  0  0  0
   -2.9054  -16.1819  -99.2138 C   0  0  0  0  0  0  0  0  0  0  0  0
    3.0267  -13.3698  -98.6911 O   0  0  0  0  0  0  0  0  0  0  0  0
    2.8560  -10.1197  -98.5905 O   0  5  0  0  0  0  0  0  0  0  0  0
   -2.1186  -17.3114  -99.0891 N   0  0  0  0  0  0  0  0  0  0  0  0
    1.7168  -11.6095 -100.2499 O   0  0  0  0  0  0  0  0  0  0  0  0
    2.3815   -9.1930 -100.8543 O   0  0  0  0  0  0  0  0  0  0  0  0
   -1.0455  -17.1954  -99.9379 C   0  0  1  0  0  0  0  0  0  0  0  0
   -1.0924  -15.9849 -100.6471 C   0  0  2  0  0  0  0  0  0  0  0  0
   -0.2119  -15.3164 -101.6738 C   0  0  0  0  0  0  0  0  0  0  0  0
    1.0401  -14.7146 -101.0268 C   0  0  0  0  0  0  0  0  0  0  0  0
    0.6532  -13.7644 -100.0417 O   0  0  0  0  0  0  0  0  0  0  0  0
  1 11  1  0  0  0  0
  3 13  1  1  0  0  0
  3 17  2  0  0  0  0
  3 20  1  0  0  0  0
  3 26  1  0  0  0  0
  4 14  1  6  0  0  0
  4 18  1  0  0  0  0
  4 21  2  0  0  0  0
  4 20  1  0  0  0  0
  5 19  1  0  0  0  0
  5  7  1  0  0  0  0
  6  7  2  0  0  0  0
  6 12  1  0  0  0  0
  7  8  1  0  0  0  0
  8  9  1  0  0  0  0
  8 10  2  0  0  0  0
 10 11  1  0  0  0  0
 11 12  2  0  0  0  0
 15 23  1  0  0  0  0
 15 16  1  0  0  0  0
 16 19  1  0  0  0  0
 19 22  1  0  0  0  0
 22  2  1  1  0  0  0
 22 23  1  0  0  0  0
 23 24  1  1  0  0  0
 24 25  1  0  0  0  0
 25 26  1  0  0  0  0
M  CHG  2  13  -1  18  -1
M  END
>  <CHROM.1>
78.42327360,-108.31706196,-127.43073251,80.32349621,103.45193179,-58.81239895
-175.83953856,-161.10638384,0.36980754,-14.86045557,-98.75700195,-2.15744919
-0.77570064,-0.84792257

>  <Name>
ligand

>  <RI>
0

>  <Rbt.Current_Directory>
/home/itssahil/PROJECTS/Mol_Feturizer/New_Systems/rnas/2CKY

>  <Rbt.Executable>
rbdock ($Id: //depot/dev/client3/rdock/2013.1/src/exe/rbdock.cxx#4 $)

>  <Rbt.Library>
libRbt.so (2013.1, Build901 2013/11/27)

>  <Rbt.Parameter_File>
/export/apps/rDock/src/rDock_2013.1_src/data/scripts/dock_solv.prm

>  <Rbt.Receptor>
prm/pocket_docking_5.prm

>  <SCORE>
-15.324

>  <SCORE.INTER>
-9.07705

>  <SCORE.INTER.CONST>
1

>  <SCORE.INTER.POLAR>
0

>  <SCORE.INTER.ROT>
8

>  <SCORE.INTER.SOLV>
8.01237

>  <SCORE.INTER.VDW>
-17.6555

>  <SCORE.INTER.norm>
-0.349117

>  <SCORE.INTRA>
-6.24699

>  <SCORE.INTRA.DIHEDRAL>
-9.96939

>  <SCORE.INTRA.DIHEDRAL.0>
16.4846

>  <SCORE.INTRA.POLAR>
0

>  <SCORE.INTRA.POLAR.0>
0

>  <SCORE.INTRA.REPUL>
0

>  <SCORE.INTRA.REPUL.0>
0

>  <SCORE.INTRA.SOLV>
2.30702

>  <SCORE.INTRA.SOLV.lig_0>
-82.6983

>  <SCORE.INTRA.VDW>
-2.4158

>  <SCORE.INTRA.VDW.0>
-2.11466

>  <SCORE.INTRA.norm>
-0.240269

>  <SCORE.RESTR>
0

>  <SCORE.RESTR.CAVITY>
0

>  <SCORE.RESTR.norm>
0

>  <SCORE.SYSTEM>
0

>  <SCORE.SYSTEM.CONST>
0

>  <SCORE.SYSTEM.DIHEDRAL>
0

>  <SCORE.SYSTEM.SOLV>
0

>  <SCORE.SYSTEM.norm>
0

>  <SCORE.heavy>
26

>  <SCORE.norm>
-0.589386

>  <RMSD>
6.264

$$$$
ligand
 OpenBabel11021811423D
libRbt.so/2013.1/901 2013/11/27
 26 27  0  0  0  0  0  0  0  0999 V2000
    0.2187  -19.3770  -93.7999 C   0  0  0  0  0  0  0  0  0  0  0  0
   -0.2370  -16.4300  -99.1523 C   0  0  0  0  0  0  0  0  0  0  0  0
    1.9254  -13.2830  -99.5113 P   0  0  2  0  0  0  0  0  0  0  0  0
    3.2910  -10.9279 -100.0201 P   0  0  2  0  0  0  0  0  0  0  0  0
   -2.7802  -18.1932  -98.5402 C   0  0  0  0  0  0  0  0  0  0  0  0
   -1.7687  -17.5663  -96.3621 C   0  0  0  0  0  0  0  0  0  0  0  0
   -1.9675  -18.5460  -97.3262 C   0  0  0  0  0  0  0  0  0  0  0  0
   -1.4530  -19.8265  -97.1027 C   0  0  0  0  0  0  0  0  0  0  0  0
   -1.5918  -20.8481  -97.9483 N   0  0  0  0  0  0  0  0  0  0  0  0
   -0.7524  -20.0704  -95.9499 N   0  0  0  0  0  0  0  0  0  0  0  0
   -0.5562  -19.0806  -95.0284 C   0  0  0  0  0  0  0  0  0  0  0  0
   -1.0567  -17.8315  -95.2119 N   0  0  0  0  0  0  0  0  0  0  0  0
    3.1748  -13.9213  -98.9372 O   0  5  0  0  0  0  0  0  0  0  0  0
    3.2242  -11.2532 -101.4954 O   0  0  0  0  0  0  0  0  0  0  0  0
   -3.6159  -14.4569  -99.3830 S   0  0  0  0  0  0  0  0  0  0  0  0
   -3.8856  -16.0186  -99.0025 C   0  0  0  0  0  0  0  0  0  0  0  0
    1.7807  -13.8251 -100.9308 O   0  0  0  0  0  0  0  0  0  0  0  0
    4.5664  -11.4459  -99.3873 O   0  5  0  0  0  0  0  0  0  0  0  0
   -2.7481  -16.7977  -98.9074 N   0  0  0  0  0  0  0  0  0  0  0  0
    2.0747  -11.6867  -99.3230 O   0  0  0  0  0  0  0  0  0  0  0  0
    3.1883   -9.4246  -99.8607 O   0  0  0  0  0  0  0  0  0  0  0  0
   -1.6530  -16.0100  -99.1642 C   0  0  1  0  0  0  0  0  0  0  0  0
   -2.0363  -14.6871  -99.4352 C   0  0  2  0  0  0  0  0  0  0  0  0
   -1.3017  -13.4100  -99.7603 C   0  0  0  0  0  0  0  0  0  0  0  0
   -0.5819  -12.8523  -98.5278 C   0  0  0  0  0  0  0  0  0  0  0  0
    0.7029  -13.4525  -98.4184 O   0  0  0  0  0  0  0  0  0  0  0  0
  1 11  1  0  0  0  0
  3 13  1  1  0  0  0
  3 17  2  0  0  0  0
  3 20  1  0  0  0  0
  3 26  1  0  0  0  0
  4 14  1  6  0  0  0
  4 18  1  0  0  0  0
  4 21  2  0  0  0  0
  4 20  1  0  0  0  0
  5 19  1  0  0  0  0
  5  7  1  0  0  0  0
  6  7  2  0  0  0  0
  6 12  1  0  0  0  0
  7  8  1  0  0  0  0
  8  9  1  0  0  0  0
  8 10  2  0  0  0  0
 10 11  1  0  0  0  0
 11 12  2  0  0  0  0
 15 23  1  0  0  0  0
 15 16  1  0  0  0  0
 16 19  1  0  0  0  0
 19 22  1  0  0  0  0
 22  2  1  1  0  0  0
 22 23  1  0  0  0  0
 23 24  1  1  0  0  0
 24 25  1  0  0  0  0
 25 26  1  0  0  0  0
M  CHG  2  13  -1  18  -1
M  END
>  <CHROM.1>
60.66058684,-122.07005925,27.81051753,55.44096409,106.94117292,86.42115513
63.93430020,172.47172933,0.07942737,-14.95667749,-98.61792851,-2.12714877
-0.29295426,-0.58705625

>  <Name>
ligand

>  <RI>
0

>  <Rbt.Current_Directory>
/home/itssahil/PROJECTS/Mol_Feturizer/New_Systems/rnas/2CKY

>  <Rbt.Executable>
rbdock ($Id: //depot/dev/client3/rdock/2013.1/src/exe/rbdock.cxx#4 $)

>  <Rbt.Library>
libRbt.so (2013.1, Build901 2013/11/27)

>  <Rbt.Parameter_File>
/export/apps/rDock/src/rDock_2013.1_src/data/scripts/dock_solv.prm

>  <Rbt.Receptor>
prm/pocket_docking_6.prm

>  <SCORE>
-14.2692

>  <SCORE.INTER>
-8.57352

>  <SCORE.INTER.CONST>
1

>  <SCORE.INTER.POLAR>
0

>  <SCORE.INTER.ROT>
8

>  <SCORE.INTER.SOLV>
12.6004

>  <SCORE.INTER.VDW>
-18.8492

>  <SCORE.INTER.norm>
-0.329751

>  <SCORE.INTRA>
-5.69571

>  <SCORE.INTRA.DIHEDRAL>
-9.528

>  <SCORE.INTRA.DIHEDRAL.0>
16.4846

>  <SCORE.INTRA.POLAR>
0

>  <SCORE.INTRA.POLAR.0>
0

>  <SCORE.INTRA.REPUL>
0

>  <SCORE.INTRA.REPUL.0>
0

>  <SCORE.INTRA.SOLV>
1.96395

>  <SCORE.INTRA.SOLV.lig_0>
-82.6983

>  <SCORE.INTRA.VDW>
-1.91368

>  <SCORE.INTRA.VDW.0>
-2.11466

>  <SCORE.INTRA.norm>
-0.219066

>  <SCORE.RESTR>
0

>  <SCORE.RESTR.CAVITY>
0

>  <SCORE.RESTR.norm>
0

>  <SCORE.SYSTEM>
0

>  <SCORE.SYSTEM.CONST>
0

>  <SCORE.SYSTEM.DIHEDRAL>
0

>  <SCORE.SYSTEM.SOLV>
0

>  <SCORE.SYSTEM.norm>
0

>  <SCORE.heavy>
26

>  <SCORE.norm>
-0.548816

>  <RMSD>
6.361

$$$$
ligand
 OpenBabel11021811423D
libRbt.so/2013.1/901 2013/11/27
 26 27  0  0  0  0  0  0  0  0999 V2000
    2.8307  -17.1918  -94.4756 C   0  0  0  0  0  0  0  0  0  0  0  0
   -2.9395  -15.0985  -95.7236 C   0  0  0  0  0  0  0  0  0  0  0  0
   -3.1730  -17.8502  -98.9194 P   0  0  2  0  0  0  0  0  0  0  0  0
   -0.8793  -18.9831  -97.8582 P   0  0  2  0  0  0  0  0  0  0  0  0
   -0.9705  -12.9024  -94.6049 C   0  0  0  0  0  0  0  0  0  0  0  0
   -0.1414  -15.0834  -93.7586 C   0  0  0  0  0  0  0  0  0  0  0  0
    0.0665  -13.9901  -94.5896 C   0  0  0  0  0  0  0  0  0  0  0  0
    1.1968  -13.9733  -95.4120 C   0  0  0  0  0  0  0  0  0  0  0  0
    1.4935  -12.9863  -96.2580 N   0  0  0  0  0  0  0  0  0  0  0  0
    2.0741  -15.0253  -95.3590 N   0  0  0  0  0  0  0  0  0  0  0  0
    1.8530  -16.0784  -94.5167 C   0  0  0  0  0  0  0  0  0  0  0  0
    0.7562  -16.1286  -93.7171 N   0  0  0  0  0  0  0  0  0  0  0  0
   -4.0879  -18.8923  -98.3068 O   0  5  0  0  0  0  0  0  0  0  0  0
   -1.6889  -20.1452  -97.3284 O   0  0  0  0  0  0  0  0  0  0  0  0
   -2.6639  -11.9207  -98.0015 S   0  0  0  0  0  0  0  0  0  0  0  0
   -1.7245  -11.7645  -96.6789 C   0  0  0  0  0  0  0  0  0  0  0  0
   -2.9650  -18.2643 -100.3737 O   0  0  0  0  0  0  0  0  0  0  0  0
    0.2292  -18.5886  -96.9037 O   0  5  0  0  0  0  0  0  0  0  0  0
   -1.7642  -12.8375  -95.8087 N   0  0  0  0  0  0  0  0  0  0  0  0
   -1.8714  -17.7405  -97.9708 O   0  0  0  0  0  0  0  0  0  0  0  0
   -0.3085  -19.3775  -99.2053 O   0  0  0  0  0  0  0  0  0  0  0  0
   -2.6153  -13.7863  -96.3193 C   0  0  1  0  0  0  0  0  0  0  0  0
   -3.1616  -13.3673  -97.5426 C   0  0  2  0  0  0  0  0  0  0  0  0
   -4.1137  -13.9690  -98.5466 C   0  0  0  0  0  0  0  0  0  0  0  0
   -3.4801  -15.1628  -99.2689 C   0  0  0  0  0  0  0  0  0  0  0  0
   -3.7605  -16.3557  -98.5470 O   0  0  0  0  0  0  0  0  0  0  0  0
  1 11  1  0  0  0  0
  3 13  1  1  0  0  0
  3 17  2  0  0  0  0
  3 20  1  0  0  0  0
  3 26  1  0  0  0  0
  4 14  1  1  0  0  0
  4 18  1  0  0  0  0
  4 21  2  0  0  0  0
  4 20  1  0  0  0  0
  5 19  1  0  0  0  0
  5  7  1  0  0  0  0
  6  7  2  0  0  0  0
  6 12  1  0  0  0  0
  7  8  1  0  0  0  0
  8  9  1  0  0  0  0
  8 10  2  0  0  0  0
 10 11  1  0  0  0  0
 11 12  2  0  0  0  0
 15 23  1  0  0  0  0
 15 16  1  0  0  0  0
 16 19  1  0  0  0  0
 19 22  1  0  0  0  0
 22  2  1  6  0  0  0
 22 23  1  0  0  0  0
 23 24  1  6  0  0  0
 24 25  1  0  0  0  0
 25 26  1  0  0  0  0
M  CHG  2  13  -1  18  -1
M  END
>  <CHROM.1>
66.35687627,-114.83449851,-108.47378412,-59.71317420,110.81572208,90.01709620
-175.33062145,-157.82433828,-1.39254008,-15.88389407,-97.04001954,-1.16978466
0.65915366,-2.85742536

>  <Name>
ligand

>  <RI>
0

>  <Rbt.Current_Directory>
/home/itssahil/PROJECTS/Mol_Feturizer/New_Systems/rnas/2CKY

>  <Rbt.Executable>
rbdock ($Id: //depot/dev/client3/rdock/2013.1/src/exe/rbdock.cxx#4 $)

>  <Rbt.Library>
libRbt.so (2013.1, Build901 2013/11/27)

>  <Rbt.Parameter_File>
/export/apps/rDock/src/rDock_2013.1_src/data/scripts/dock_solv.prm

>  <Rbt.Receptor>
prm/pocket_docking_5.prm

>  <SCORE>
-16.7981

>  <SCORE.INTER>
-10.8385

>  <SCORE.INTER.CONST>
1

>  <SCORE.INTER.POLAR>
0

>  <SCORE.INTER.ROT>
8

>  <SCORE.INTER.SOLV>
12.4342

>  <SCORE.INTER.VDW>
-20.3037

>  <SCORE.INTER.norm>
-0.416864

>  <SCORE.INTRA>
-5.9596

>  <SCORE.INTRA.DIHEDRAL>
-8.08169

>  <SCORE.INTRA.DIHEDRAL.0>
16.4846

>  <SCORE.INTRA.POLAR>
0

>  <SCORE.INTRA.POLAR.0>
0

>  <SCORE.INTRA.REPUL>
0

>  <SCORE.INTRA.REPUL.0>
0

>  <SCORE.INTRA.SOLV>
1.75626

>  <SCORE.INTRA.SOLV.lig_0>
-82.6983

>  <SCORE.INTRA.VDW>
-2.79688

>  <SCORE.INTRA.VDW.0>
-2.11466

>  <SCORE.INTRA.norm>
-0.229215

>  <SCORE.RESTR>
0

>  <SCORE.RESTR.CAVITY>
0

>  <SCORE.RESTR.norm>
0

>  <SCORE.SYSTEM>
0

>  <SCORE.SYSTEM.CONST>
0

>  <SCORE.SYSTEM.DIHEDRAL>
0

>  <SCORE.SYSTEM.SOLV>
0

>  <SCORE.SYSTEM.norm>
0

>  <SCORE.heavy>
26

>  <SCORE.norm>
-0.64608

>  <RMSD>
6.372

$$$$
ligand
 OpenBabel11021811423D
libRbt.so/2013.1/901 2013/11/27
 26 27  0  0  0  0  0  0  0  0999 V2000
    0.9286  -19.0920  -93.8522 C   0  0  0  0  0  0  0  0  0  0  0  0
   -0.2399  -18.2501 -100.0775 C   0  0  0  0  0  0  0  0  0  0  0  0
    1.6313  -12.7820  -99.2887 P   0  0  2  0  0  0  0  0  0  0  0  0
    3.6886  -11.1656 -100.1973 P   0  0  2  0  0  0  0  0  0  0  0  0
   -2.7514  -18.2609  -98.1687 C   0  0  0  0  0  0  0  0  0  0  0  0
   -1.4743  -17.4878  -96.1858 C   0  0  0  0  0  0  0  0  0  0  0  0
   -1.7626  -18.5216  -97.0673 C   0  0  0  0  0  0  0  0  0  0  0  0
   -1.1664  -19.7693  -96.8618 C   0  0  0  0  0  0  0  0  0  0  0  0
   -1.3770  -20.8366  -97.6326 N   0  0  0  0  0  0  0  0  0  0  0  0
   -0.3018  -19.9285  -95.8099 N   0  0  0  0  0  0  0  0  0  0  0  0
   -0.0224  -18.8869  -94.9707 C   0  0  0  0  0  0  0  0  0  0  0  0
   -0.5978  -17.6680  -95.1373 N   0  0  0  0  0  0  0  0  0  0  0  0
    0.8605  -11.6113  -98.7112 O   0  5  0  0  0  0  0  0  0  0  0  0
    4.5055  -11.0314 -101.4627 O   0  0  0  0  0  0  0  0  0  0  0  0
   -2.4202  -15.0021 -100.3227 S   0  0  0  0  0  0  0  0  0  0  0  0
   -3.0620  -16.0470  -99.2490 C   0  0  0  0  0  0  0  0  0  0  0  0
    2.3550  -13.4389  -98.1163 O   0  0  0  0  0  0  0  0  0  0  0  0
    4.5094  -11.7293  -99.0553 O   0  5  0  0  0  0  0  0  0  0  0  0
   -2.3630  -17.2301  -99.1015 N   0  0  0  0  0  0  0  0  0  0  0  0
    2.5257  -12.2114 -100.5055 O   0  0  0  0  0  0  0  0  0  0  0  0
    3.1422   -9.7988  -99.8381 O   0  0  0  0  0  0  0  0  0  0  0  0
   -1.2683  -17.2002  -99.9299 C   0  0  1  0  0  0  0  0  0  0  0  0
   -1.2124  -15.9953 -100.6478 C   0  0  2  0  0  0  0  0  0  0  0  0
   -0.2656  -15.4015 -101.6615 C   0  0  0  0  0  0  0  0  0  0  0  0
    0.9783  -14.8153 -100.9852 C   0  0  0  0  0  0  0  0  0  0  0  0
    0.6127  -13.6574 -100.2446 O   0  0  0  0  0  0  0  0  0  0  0  0
  1 11  1  0  0  0  0
  3 13  1  1  0  0  0
  3 17  2  0  0  0  0
  3 20  1  0  0  0  0
  3 26  1  0  0  0  0
  4 14  1  6  0  0  0
  4 18  1  0  0  0  0
  4 21  2  0  0  0  0
  4 20  1  0  0  0  0
  5 19  1  0  0  0  0
  5  7  1  0  0  0  0
  6  7  2  0  0  0  0
  6 12  1  0  0  0  0
  7  8  1  0  0  0  0
  8  9  1  0  0  0  0
  8 10  2  0  0  0  0
 10 11  1  0  0  0  0
 11 12  2  0  0  0  0
 15 23  1  0  0  0  0
 15 16  1  0  0  0  0
 16 19  1  0  0  0  0
 19 22  1  0  0  0  0
 22  2  1  1  0  0  0
 22 23  1  0  0  0  0
 23 24  1  1  0  0  0
 24 25  1  0  0  0  0
 25 26  1  0  0  0  0
M  CHG  2  13  -1  18  -1
M  END
>  <CHROM.1>
64.80136336,-115.74627625,61.95735616,169.12264490,100.16251706,-69.21973628
175.79348978,178.48105638,0.43131893,-15.17674638,-98.87097555,-2.21606169
-0.65283108,-0.83165222

>  <Name>
ligand

>  <RI>
0

>  <Rbt.Current_Directory>
/home/itssahil/PROJECTS/Mol_Feturizer/New_Systems/rnas/2CKY

>  <Rbt.Executable>
rbdock ($Id: //depot/dev/client3/rdock/2013.1/src/exe/rbdock.cxx#4 $)

>  <Rbt.Library>
libRbt.so (2013.1, Build901 2013/11/27)

>  <Rbt.Parameter_File>
/export/apps/rDock/src/rDock_2013.1_src/data/scripts/dock_solv.prm

>  <Rbt.Receptor>
prm/pocket_docking_6.prm

>  <SCORE>
-17.5339

>  <SCORE.INTER>
-11.3666

>  <SCORE.INTER.CONST>
1

>  <SCORE.INTER.POLAR>
0

>  <SCORE.INTER.ROT>
8

>  <SCORE.INTER.SOLV>
12.6368

>  <SCORE.INTER.VDW>
-20.7233

>  <SCORE.INTER.norm>
-0.437175

>  <SCORE.INTRA>
-6.16738

>  <SCORE.INTRA.DIHEDRAL>
-11.1241

>  <SCORE.INTRA.DIHEDRAL.0>
16.4846

>  <SCORE.INTRA.POLAR>
0

>  <SCORE.INTRA.POLAR.0>
0

>  <SCORE.INTRA.REPUL>
0

>  <SCORE.INTRA.REPUL.0>
0

>  <SCORE.INTRA.SOLV>
2.73237

>  <SCORE.INTRA.SOLV.lig_0>
-82.6983

>  <SCORE.INTRA.VDW>
-1.97153

>  <SCORE.INTRA.VDW.0>
-2.11466

>  <SCORE.INTRA.norm>
-0.237207

>  <SCORE.RESTR>
0

>  <SCORE.RESTR.CAVITY>
0

>  <SCORE.RESTR.norm>
0

>  <SCORE.SYSTEM>
0

>  <SCORE.SYSTEM.CONST>
0

>  <SCORE.SYSTEM.DIHEDRAL>
0

>  <SCORE.SYSTEM.SOLV>
0

>  <SCORE.SYSTEM.norm>
0

>  <SCORE.heavy>
26

>  <SCORE.norm>
-0.674382

>  <RMSD>
6.390

$$$$
ligand
 OpenBabel11021811423D
libRbt.so/2013.1/901 2013/11/27
 26 27  0  0  0  0  0  0  0  0999 V2000
   -4.8984  -23.0114  -95.9700 C   0  0  0  0  0  0  0  0  0  0  0  0
   -1.4245  -16.7301  -96.5396 C   0  0  0  0  0  0  0  0  0  0  0  0
    2.9638  -14.0665  -96.3254 P   0  0  2  0  0  0  0  0  0  0  0  0
    5.0195  -15.0323  -97.9103 P   0  0  2  0  0  0  0  0  0  0  0  0
   -0.4455  -19.6403  -97.2633 C   0  0  0  0  0  0  0  0  0  0  0  0
   -1.6082  -21.2949  -95.8242 C   0  0  0  0  0  0  0  0  0  0  0  0
   -1.6268  -20.5253  -96.9803 C   0  0  0  0  0  0  0  0  0  0  0  0
   -2.7595  -20.5646  -97.7986 C   0  0  0  0  0  0  0  0  0  0  0  0
   -2.8965  -19.8613  -98.9231 N   0  0  0  0  0  0  0  0  0  0  0  0
   -3.8075  -21.3750  -97.4459 N   0  0  0  0  0  0  0  0  0  0  0  0
   -3.7522  -22.1359  -96.3123 C   0  0  0  0  0  0  0  0  0  0  0  0
   -2.6709  -22.1070  -95.4909 N   0  0  0  0  0  0  0  0  0  0  0  0
    2.0993  -13.8159  -97.5452 O   0  5  0  0  0  0  0  0  0  0  0  0
    4.1935  -14.8978  -99.1697 O   0  0  0  0  0  0  0  0  0  0  0  0
    1.3092  -18.1257  -94.1018 S   0  0  0  0  0  0  0  0  0  0  0  0
    0.9454  -19.2246  -95.2490 C   0  0  0  0  0  0  0  0  0  0  0  0
    3.5422  -12.7120  -95.9245 O   0  0  0  0  0  0  0  0  0  0  0  0
    5.9214  -16.2489  -97.9566 O   0  5  0  0  0  0  0  0  0  0  0  0
   -0.0200  -18.8225  -96.1527 N   0  0  0  0  0  0  0  0  0  0  0  0
    3.9969  -15.2470  -96.7064 O   0  0  0  0  0  0  0  0  0  0  0  0
    5.8371  -13.7678  -97.7418 O   0  0  0  0  0  0  0  0  0  0  0  0
   -0.4230  -17.5505  -95.8286 C   0  0  1  0  0  0  0  0  0  0  0  0
    0.2660  -17.0755  -94.7015 C   0  0  2  0  0  0  0  0  0  0  0  0
    0.2629  -15.7880  -93.9148 C   0  0  0  0  0  0  0  0  0  0  0  0
    0.8091  -14.6243  -94.7490 C   0  0  0  0  0  0  0  0  0  0  0  0
    2.0977  -14.9630  -95.2466 O   0  0  0  0  0  0  0  0  0  0  0  0
  1 11  1  0  0  0  0
  3 13  1  6  0  0  0
  3 17  2  0  0  0  0
  3 20  1  0  0  0  0
  3 26  1  0  0  0  0
  4 14  1  6  0  0  0
  4 18  1  0  0  0  0
  4 21  2  0  0  0  0
  4 20  1  0  0  0  0
  5 19  1  0  0  0  0
  5  7  1  0  0  0  0
  6  7  2  0  0  0  0
  6 12  1  0  0  0  0
  7  8  1  0  0  0  0
  8  9  1  0  0  0  0
  8 10  2  0  0  0  0
 10 11  1  0  0  0  0
 11 12  2  0  0  0  0
 15 23  1  0  0  0  0
 15 16  1  0  0  0  0
 16 19  1  0  0  0  0
 19 22  1  0  0  0  0
 22  2  1  6  0  0  0
 22 23  1  0  0  0  0
 23 24  1  6  0  0  0
 24 25  1  0  0  0  0
 25 26  1  0  0  0  0
M  CHG  2  13  -1  18  -1
M  END
>  <CHROM.1>
60.56056812,91.93414990,-48.56519408,-64.38613847,112.92688731,-54.64737792
172.72281164,-53.91957505,0.97255147,-17.26501726,-96.44033065,-2.77589400
0.69396908,0.94271691

>  <Name>
ligand

>  <RI>
0

>  <Rbt.Current_Directory>
/home/itssahil/PROJECTS/Mol_Feturizer/New_Systems/rnas/2CKY

>  <Rbt.Executable>
rbdock ($Id: //depot/dev/client3/rdock/2013.1/src/exe/rbdock.cxx#4 $)

>  <Rbt.Library>
libRbt.so (2013.1, Build901 2013/11/27)

>  <Rbt.Parameter_File>
/export/apps/rDock/src/rDock_2013.1_src/data/scripts/dock_solv.prm

>  <Rbt.Receptor>
prm/pocket_docking_8.prm

>  <SCORE>
-17.4798

>  <SCORE.INTER>
-10.3076

>  <SCORE.INTER.CONST>
1

>  <SCORE.INTER.POLAR>
0

>  <SCORE.INTER.ROT>
8

>  <SCORE.INTER.SOLV>
14.2561

>  <SCORE.INTER.VDW>
-20.5571

>  <SCORE.INTER.norm>
-0.396445

>  <SCORE.INTRA>
-7.1722

>  <SCORE.INTRA.DIHEDRAL>
-11.1319

>  <SCORE.INTRA.DIHEDRAL.0>
16.4846

>  <SCORE.INTRA.POLAR>
0

>  <SCORE.INTRA.POLAR.0>
0

>  <SCORE.INTRA.REPUL>
0

>  <SCORE.INTRA.REPUL.0>
0

>  <SCORE.INTRA.SOLV>
0.917869

>  <SCORE.INTRA.SOLV.lig_0>
-82.6983

>  <SCORE.INTRA.VDW>
-2.06517

>  <SCORE.INTRA.VDW.0>
-2.11466

>  <SCORE.INTRA.norm>
-0.275854

>  <SCORE.RESTR>
0

>  <SCORE.RESTR.CAVITY>
0

>  <SCORE.RESTR.norm>
0

>  <SCORE.SYSTEM>
0

>  <SCORE.SYSTEM.CONST>
0

>  <SCORE.SYSTEM.DIHEDRAL>
0

>  <SCORE.SYSTEM.SOLV>
0

>  <SCORE.SYSTEM.norm>
0

>  <SCORE.heavy>
26

>  <SCORE.norm>
-0.672299

>  <RMSD>
6.407

$$$$
ligand
 OpenBabel11021811423D
libRbt.so/2013.1/901 2013/11/27
 26 27  0  0  0  0  0  0  0  0999 V2000
   -1.0979  -17.5529  -92.8382 C   0  0  0  0  0  0  0  0  0  0  0  0
   -1.5211  -14.3624  -99.4496 C   0  0  0  0  0  0  0  0  0  0  0  0
    3.8597  -13.2823  -98.5616 P   0  0  2  0  0  0  0  0  0  0  0  0
    4.7607  -15.7964  -97.8280 P   0  0  2  0  0  0  0  0  0  0  0  0
   -2.0646  -17.3159  -98.4839 C   0  0  0  0  0  0  0  0  0  0  0  0
   -2.0373  -16.3168  -96.2120 C   0  0  0  0  0  0  0  0  0  0  0  0
   -1.7727  -17.4199  -97.0133 C   0  0  0  0  0  0  0  0  0  0  0  0
   -1.3005  -18.5913  -96.4140 C   0  0  0  0  0  0  0  0  0  0  0  0
   -1.0246  -19.7142  -97.0778 N   0  0  0  0  0  0  0  0  0  0  0  0
   -1.0947  -18.6091  -95.0587 N   0  0  0  0  0  0  0  0  0  0  0  0
   -1.3456  -17.5015  -94.2988 C   0  0  0  0  0  0  0  0  0  0  0  0
   -1.8186  -16.3546  -94.8516 N   0  0  0  0  0  0  0  0  0  0  0  0
    4.4478  -12.0315  -99.1844 O   0  5  0  0  0  0  0  0  0  0  0  0
    6.0935  -16.5070  -97.7552 O   0  0  0  0  0  0  0  0  0  0  0  0
    1.1369  -16.9495 -100.7166 S   0  0  0  0  0  0  0  0  0  0  0  0
    0.0143  -17.6836  -99.7908 C   0  0  0  0  0  0  0  0  0  0  0  0
    3.2850  -12.8596  -97.2122 O   0  0  0  0  0  0  0  0  0  0  0  0
    3.7546  -16.5716  -98.6541 O   0  5  0  0  0  0  0  0  0  0  0  0
   -0.9634  -16.8451  -99.2895 N   0  0  0  0  0  0  0  0  0  0  0  0
    5.0152  -14.4095  -98.5716 O   0  0  0  0  0  0  0  0  0  0  0  0
    4.2512  -15.5976  -96.4150 O   0  0  0  0  0  0  0  0  0  0  0  0
   -0.7165  -15.5686  -99.7312 C   0  0  1  0  0  0  0  0  0  0  0  0
    0.4314  -15.5278 -100.5382 C   0  0  2  0  0  0  0  0  0  0  0  0
    1.1639  -14.4478 -101.2955 C   0  0  0  0  0  0  0  0  0  0  0  0
    1.7980  -13.4304 -100.3410 C   0  0  0  0  0  0  0  0  0  0  0  0
    2.9092  -14.0272  -99.6837 O   0  0  0  0  0  0  0  0  0  0  0  0
  1 11  1  0  0  0  0
  3 13  1  6  0  0  0
  3 17  2  0  0  0  0
  3 20  1  0  0  0  0
  3 26  1  0  0  0  0
  4 14  1  1  0  0  0
  4 18  1  0  0  0  0
  4 21  2  0  0  0  0
  4 20  1  0  0  0  0
  5 19  1  0  0  0  0
  5  7  1  0  0  0  0
  6  7  2  0  0  0  0
  6 12  1  0  0  0  0
  7  8  1  0  0  0  0
  8  9  1  0  0  0  0
  8 10  2  0  0  0  0
 10 11  1  0  0  0  0
 11 12  2  0  0  0  0
 15 23  1  0  0  0  0
 15 16  1  0  0  0  0
 16 19  1  0  0  0  0
 19 22  1  0  0  0  0
 22  2  1  6  0  0  0
 22 23  1  0  0  0  0
 23 24  1  6  0  0  0
 24 25  1  0  0  0  0
 25 26  1  0  0  0  0
M  CHG  2  13  -1  18  -1
M  END
>  <CHROM.1>
172.99954962,85.98126680,90.68869490,-168.18238624,-113.42191462,71.83314406
-179.24760025,-57.62253229,1.44244376,-15.81865698,-98.11623971,-2.60752789
-0.38636877,-1.20540724

>  <Name>
ligand

>  <RI>
0

>  <Rbt.Current_Directory>
/home/itssahil/PROJECTS/Mol_Feturizer/New_Systems/rnas/2CKY

>  <Rbt.Executable>
rbdock ($Id: //depot/dev/client3/rdock/2013.1/src/exe/rbdock.cxx#4 $)

>  <Rbt.Library>
libRbt.so (2013.1, Build901 2013/11/27)

>  <Rbt.Parameter_File>
/export/apps/rDock/src/rDock_2013.1_src/data/scripts/dock_solv.prm

>  <Rbt.Receptor>
prm/pocket_docking_4.prm

>  <SCORE>
-15.4277

>  <SCORE.INTER>
-8.47573

>  <SCORE.INTER.CONST>
1

>  <SCORE.INTER.POLAR>
0

>  <SCORE.INTER.ROT>
8

>  <SCORE.INTER.SOLV>
12.5321

>  <SCORE.INTER.VDW>
-18.7612

>  <SCORE.INTER.norm>
-0.32599

>  <SCORE.INTRA>
-6.95201

>  <SCORE.INTRA.DIHEDRAL>
-10.7003

>  <SCORE.INTRA.DIHEDRAL.0>
16.4846

>  <SCORE.INTRA.POLAR>
0

>  <SCORE.INTRA.POLAR.0>
0

>  <SCORE.INTRA.REPUL>
0

>  <SCORE.INTRA.REPUL.0>
0

>  <SCORE.INTRA.SOLV>
2.024

>  <SCORE.INTRA.SOLV.lig_0>
-82.6983

>  <SCORE.INTRA.VDW>
-2.61388

>  <SCORE.INTRA.VDW.0>
-2.11466

>  <SCORE.INTRA.norm>
-0.267385

>  <SCORE.RESTR>
0

>  <SCORE.RESTR.CAVITY>
0

>  <SCORE.RESTR.norm>
0

>  <SCORE.SYSTEM>
0

>  <SCORE.SYSTEM.CONST>
0

>  <SCORE.SYSTEM.DIHEDRAL>
0

>  <SCORE.SYSTEM.SOLV>
0

>  <SCORE.SYSTEM.norm>
0

>  <SCORE.heavy>
26

>  <SCORE.norm>
-0.593375

>  <RMSD>
6.454

$$$$
ligand
 OpenBabel11021811423D
libRbt.so/2013.1/901 2013/11/27
 26 27  0  0  0  0  0  0  0  0999 V2000
    3.0997  -13.4930  -91.3628 C   0  0  0  0  0  0  0  0  0  0  0  0
   -3.0453  -11.9451  -97.4222 C   0  0  0  0  0  0  0  0  0  0  0  0
   -2.8860  -17.5923  -99.2072 P   0  0  2  0  0  0  0  0  0  0  0  0
   -1.5783  -19.2637  -97.4277 P   0  0  2  0  0  0  0  0  0  0  0  0
   -1.1552  -11.9860  -94.8969 C   0  0  0  0  0  0  0  0  0  0  0  0
   -0.2152  -12.4085  -92.6389 C   0  0  0  0  0  0  0  0  0  0  0  0
   -0.0019  -12.3644  -94.0106 C   0  0  0  0  0  0  0  0  0  0  0  0
    1.2532  -12.7246  -94.5101 C   0  0  0  0  0  0  0  0  0  0  0  0
    1.5701  -12.7333  -95.8051 N   0  0  0  0  0  0  0  0  0  0  0  0
    2.2392  -13.0907  -93.6308 N   0  0  0  0  0  0  0  0  0  0  0  0
    2.0054  -13.1055  -92.2846 C   0  0  0  0  0  0  0  0  0  0  0  0
    0.7919  -12.7747  -91.7720 N   0  0  0  0  0  0  0  0  0  0  0  0
   -4.3521  -17.8101  -98.8892 O   0  5  0  0  0  0  0  0  0  0  0  0
   -2.7980  -20.1568  -97.4645 O   0  0  0  0  0  0  0  0  0  0  0  0
   -2.7350  -15.4729  -95.7424 S   0  0  0  0  0  0  0  0  0  0  0  0
   -1.8231  -14.3768  -94.9529 C   0  0  0  0  0  0  0  0  0  0  0  0
   -2.5611  -18.5113 -100.3818 O   0  0  0  0  0  0  0  0  0  0  0  0
   -0.9905  -19.1720  -96.0343 O   0  5  0  0  0  0  0  0  0  0  0  0
   -1.8626  -13.1003  -95.4812 N   0  0  0  0  0  0  0  0  0  0  0  0
   -2.0632  -17.8006  -97.8340 O   0  0  0  0  0  0  0  0  0  0  0  0
   -0.5574  -19.8144  -98.4025 O   0  0  0  0  0  0  0  0  0  0  0  0
   -2.6994  -13.1008  -96.5699 C   0  0  1  0  0  0  0  0  0  0  0  0
   -3.2376  -14.3783  -96.7911 C   0  0  2  0  0  0  0  0  0  0  0  0
   -4.1982  -14.9713  -97.7922 C   0  0  0  0  0  0  0  0  0  0  0  0
   -3.6061  -14.9616  -99.2056 C   0  0  0  0  0  0  0  0  0  0  0  0
   -2.6086  -15.9704  -99.3075 O   0  0  0  0  0  0  0  0  0  0  0  0
  1 11  1  0  0  0  0
  3 13  1  1  0  0  0
  3 17  2  0  0  0  0
  3 20  1  0  0  0  0
  3 26  1  0  0  0  0
  4 14  1  1  0  0  0
  4 18  1  0  0  0  0
  4 21  2  0  0  0  0
  4 20  1  0  0  0  0
  5 19  1  0  0  0  0
  5  7  1  0  0  0  0
  6  7  2  0  0  0  0
  6 12  1  0  0  0  0
  7  8  1  0  0  0  0
  8  9  1  0  0  0  0
  8 10  2  0  0  0  0
 10 11  1  0  0  0  0
 11 12  2  0  0  0  0
 15 23  1  0  0  0  0
 15 16  1  0  0  0  0
 16 19  1  0  0  0  0
 19 22  1  0  0  0  0
 22  2  1  1  0  0  0
 22 23  1  0  0  0  0
 23 24  1  1  0  0  0
 24 25  1  0  0  0  0
 25 26  1  0  0  0  0
M  CHG  2  13  -1  18  -1
M  END
>  <CHROM.1>
87.50407395,21.39684154,-97.28583306,-53.32883627,-114.19103429,74.08024958
65.58733316,-4.09742679,-1.49193874,-15.56561581,-96.42364537,-0.96362597
0.75314098,-2.82823701

>  <Name>
ligand

>  <RI>
0

>  <Rbt.Current_Directory>
/home/itssahil/PROJECTS/Mol_Feturizer/New_Systems/rnas/2CKY

>  <Rbt.Executable>
rbdock ($Id: //depot/dev/client3/rdock/2013.1/src/exe/rbdock.cxx#4 $)

>  <Rbt.Library>
libRbt.so (2013.1, Build901 2013/11/27)

>  <Rbt.Parameter_File>
/export/apps/rDock/src/rDock_2013.1_src/data/scripts/dock_solv.prm

>  <Rbt.Receptor>
prm/pocket_docking_7.prm

>  <SCORE>
-17.1385

>  <SCORE.INTER>
-11.6211

>  <SCORE.INTER.CONST>
1

>  <SCORE.INTER.POLAR>
0

>  <SCORE.INTER.ROT>
8

>  <SCORE.INTER.SOLV>
14.026

>  <SCORE.INTER.VDW>
-21.3561

>  <SCORE.INTER.norm>
-0.446967

>  <SCORE.INTRA>
-5.51733

>  <SCORE.INTRA.DIHEDRAL>
-7.90115

>  <SCORE.INTRA.DIHEDRAL.0>
16.4846

>  <SCORE.INTRA.POLAR>
0

>  <SCORE.INTRA.POLAR.0>
0

>  <SCORE.INTRA.REPUL>
0

>  <SCORE.INTRA.REPUL.0>
0

>  <SCORE.INTRA.SOLV>
1.21505

>  <SCORE.INTRA.SOLV.lig_0>
-82.6983

>  <SCORE.INTRA.VDW>
-2.17428

>  <SCORE.INTRA.VDW.0>
-2.11466

>  <SCORE.INTRA.norm>
-0.212205

>  <SCORE.RESTR>
0

>  <SCORE.RESTR.CAVITY>
0

>  <SCORE.RESTR.norm>
0

>  <SCORE.SYSTEM>
0

>  <SCORE.SYSTEM.CONST>
0

>  <SCORE.SYSTEM.DIHEDRAL>
0

>  <SCORE.SYSTEM.SOLV>
0

>  <SCORE.SYSTEM.norm>
0

>  <SCORE.heavy>
26

>  <SCORE.norm>
-0.659172

>  <RMSD>
6.489

$$$$
ligand
 OpenBabel11021811423D
libRbt.so/2013.1/901 2013/11/27
 26 27  0  0  0  0  0  0  0  0999 V2000
   -2.4141  -11.8557  -95.2448 C   0  0  0  0  0  0  0  0  0  0  0  0
    4.3422  -13.1637  -97.0686 C   0  0  0  0  0  0  0  0  0  0  0  0
    1.4988  -17.6286  -98.4300 P   0  0  2  0  0  0  0  0  0  0  0  0
    0.4658  -18.4526  -95.9959 P   0  0  2  0  0  0  0  0  0  0  0  0
    3.1732  -12.5939  -94.1946 C   0  0  0  0  0  0  0  0  0  0  0  0
    1.2164  -12.4800  -95.7172 C   0  0  0  0  0  0  0  0  0  0  0  0
    1.7047  -12.3687  -94.4218 C   0  0  0  0  0  0  0  0  0  0  0  0
    0.8068  -12.1077  -93.3826 C   0  0  0  0  0  0  0  0  0  0  0  0
    1.1566  -11.9929  -92.1010 N   0  0  0  0  0  0  0  0  0  0  0  0
   -0.5230  -11.9503  -93.6759 N   0  0  0  0  0  0  0  0  0  0  0  0
   -0.9711  -12.0459  -94.9632 C   0  0  0  0  0  0  0  0  0  0  0  0
   -0.1242  -12.3130  -95.9909 N   0  0  0  0  0  0  0  0  0  0  0  0
    1.1516  -16.5999  -99.4879 O   0  5  0  0  0  0  0  0  0  0  0  0
    0.3822  -19.8245  -96.6262 O   0  0  0  0  0  0  0  0  0  0  0  0
    4.2538  -16.3214  -94.7483 S   0  0  0  0  0  0  0  0  0  0  0  0
    3.6799  -15.0136  -93.9632 C   0  0  0  0  0  0  0  0  0  0  0  0
    1.4718  -18.9863  -99.1270 O   0  0  0  0  0  0  0  0  0  0  0  0
   -0.7543  -18.1463  -95.1515 O   0  5  0  0  0  0  0  0  0  0  0  0
    3.6809  -13.8459  -94.7026 N   0  0  0  0  0  0  0  0  0  0  0  0
    0.4930  -17.3957  -97.1889 O   0  0  0  0  0  0  0  0  0  0  0  0
    1.7253  -18.3924  -95.1556 O   0  0  0  0  0  0  0  0  0  0  0  0
    4.1804  -14.1175  -95.9525 C   0  0  1  0  0  0  0  0  0  0  0  0
    4.5228  -15.4734  -96.0746 C   0  0  2  0  0  0  0  0  0  0  0  0
    5.0843  -16.3356  -97.1782 C   0  0  0  0  0  0  0  0  0  0  0  0
    4.0286  -16.6251  -98.2506 C   0  0  0  0  0  0  0  0  0  0  0  0
    2.8484  -17.1210  -97.6308 O   0  0  0  0  0  0  0  0  0  0  0  0
  1 11  1  0  0  0  0
  3 13  1  6  0  0  0
  3 17  2  0  0  0  0
  3 20  1  0  0  0  0
  3 26  1  0  0  0  0
  4 14  1  6  0  0  0
  4 18  1  0  0  0  0
  4 21  2  0  0  0  0
  4 20  1  0  0  0  0
  5 19  1  0  0  0  0
  5  7  1  0  0  0  0
  6  7  2  0  0  0  0
  6 12  1  0  0  0  0
  7  8  1  0  0  0  0
  8  9  1  0  0  0  0
  8 10  2  0  0  0  0
 10 11  1  0  0  0  0
 11 12  2  0  0  0  0
 15 23  1  0  0  0  0
 15 16  1  0  0  0  0
 16 19  1  0  0  0  0
 19 22  1  0  0  0  0
 22  2  1  6  0  0  0
 22 23  1  0  0  0  0
 23 24  1  6  0  0  0
 24 25  1  0  0  0  0
 25 26  1  0  0  0  0
M  CHG  2  13  -1  18  -1
M  END
>  <CHROM.1>
171.43835394,-88.34082499,-53.75423968,-47.87847188,105.49803921,-51.31816977
-176.68773859,-46.59894635,1.80790350,-15.55371489,-96.00126725,1.67435337
0.05542551,0.49080217

>  <Name>
ligand

>  <RI>
0

>  <Rbt.Current_Directory>
/home/itssahil/PROJECTS/Mol_Feturizer/New_Systems/rnas/2CKY

>  <Rbt.Executable>
rbdock ($Id: //depot/dev/client3/rdock/2013.1/src/exe/rbdock.cxx#4 $)

>  <Rbt.Library>
libRbt.so (2013.1, Build901 2013/11/27)

>  <Rbt.Parameter_File>
/export/apps/rDock/src/rDock_2013.1_src/data/scripts/dock_solv.prm

>  <Rbt.Receptor>
prm/pocket_docking_6.prm

>  <SCORE>
-17.8472

>  <SCORE.INTER>
-9.63993

>  <SCORE.INTER.CONST>
1

>  <SCORE.INTER.POLAR>
0

>  <SCORE.INTER.ROT>
8

>  <SCORE.INTER.SOLV>
10.5025

>  <SCORE.INTER.VDW>
-18.8608

>  <SCORE.INTER.norm>
-0.370767

>  <SCORE.INTRA>
-8.20731

>  <SCORE.INTRA.DIHEDRAL>
-10.6451

>  <SCORE.INTRA.DIHEDRAL.0>
16.4846

>  <SCORE.INTRA.POLAR>
0

>  <SCORE.INTRA.POLAR.0>
0

>  <SCORE.INTRA.REPUL>
0

>  <SCORE.INTRA.REPUL.0>
0

>  <SCORE.INTRA.SOLV>
-0.607351

>  <SCORE.INTRA.SOLV.lig_0>
-82.6983

>  <SCORE.INTRA.VDW>
-2.58111

>  <SCORE.INTRA.VDW.0>
-2.11466

>  <SCORE.INTRA.norm>
-0.315666

>  <SCORE.RESTR>
0

>  <SCORE.RESTR.CAVITY>
0

>  <SCORE.RESTR.norm>
0

>  <SCORE.SYSTEM>
0

>  <SCORE.SYSTEM.CONST>
0

>  <SCORE.SYSTEM.DIHEDRAL>
0

>  <SCORE.SYSTEM.SOLV>
0

>  <SCORE.SYSTEM.norm>
0

>  <SCORE.heavy>
26

>  <SCORE.norm>
-0.686432

>  <RMSD>
6.582

$$$$
ligand
 OpenBabel11021811423D
libRbt.so/2013.1/901 2013/11/27
 26 27  0  0  0  0  0  0  0  0999 V2000
   -0.2866  -19.3810  -96.4115 C   0  0  0  0  0  0  0  0  0  0  0  0
   -1.0094  -12.0633  -94.5999 C   0  0  0  0  0  0  0  0  0  0  0  0
    2.1568  -11.7322  -99.1720 P   0  0  2  0  0  0  0  0  0  0  0  0
    1.5512  -14.0300  -97.7493 P   0  0  2  0  0  0  0  0  0  0  0  0
   -2.9516  -14.3951  -95.4612 C   0  0  0  0  0  0  0  0  0  0  0  0
   -1.5915  -16.3380  -94.7292 C   0  0  0  0  0  0  0  0  0  0  0  0
   -2.2483  -15.6878  -95.7660 C   0  0  0  0  0  0  0  0  0  0  0  0
   -2.2737  -16.2866  -97.0290 C   0  0  0  0  0  0  0  0  0  0  0  0
   -2.8824  -15.7641  -98.0940 N   0  0  0  0  0  0  0  0  0  0  0  0
   -1.6341  -17.4856  -97.2101 N   0  0  0  0  0  0  0  0  0  0  0  0
   -0.9794  -18.0920  -96.1753 C   0  0  0  0  0  0  0  0  0  0  0  0
   -0.9503  -17.5408  -94.9343 N   0  0  0  0  0  0  0  0  0  0  0  0
    1.8265  -12.6030 -100.3681 O   0  5  0  0  0  0  0  0  0  0  0  0
    0.1055  -13.5888  -97.7919 O   0  0  0  0  0  0  0  0  0  0  0  0
   -2.3997  -11.6913  -98.2456 S   0  0  0  0  0  0  0  0  0  0  0  0
   -2.9703  -13.0488  -97.5474 C   0  0  0  0  0  0  0  0  0  0  0  0
    3.2813  -10.8010  -99.6172 O   0  0  0  0  0  0  0  0  0  0  0  0
    1.9132  -14.6417  -96.4112 O   0  5  0  0  0  0  0  0  0  0  0  0
   -2.5250  -13.2696  -96.2577 N   0  0  0  0  0  0  0  0  0  0  0  0
    2.4409  -12.7192  -97.9265 O   0  0  0  0  0  0  0  0  0  0  0  0
    1.7769  -15.0248  -98.8696 O   0  0  0  0  0  0  0  0  0  0  0  0
   -1.6926  -12.2386  -95.8976 C   0  0  1  0  0  0  0  0  0  0  0  0
   -1.5652  -11.3064  -96.9394 C   0  0  2  0  0  0  0  0  0  0  0  0
   -0.8245  -10.0043  -97.1198 C   0  0  0  0  0  0  0  0  0  0  0  0
    0.6523  -10.2449  -97.4506 C   0  0  0  0  0  0  0  0  0  0  0  0
    0.7505  -11.1217  -98.5661 O   0  0  0  0  0  0  0  0  0  0  0  0
  1 11  1  0  0  0  0
  3 13  1  6  0  0  0
  3 17  2  0  0  0  0
  3 20  1  0  0  0  0
  3 26  1  0  0  0  0
  4 14  1  1  0  0  0
  4 18  1  0  0  0  0
  4 21  2  0  0  0  0
  4 20  1  0  0  0  0
  5 19  1  0  0  0  0
  5  7  1  0  0  0  0
  6  7  2  0  0  0  0
  6 12  1  0  0  0  0
  7  8  1  0  0  0  0
  8  9  1  0  0  0  0
  8 10  2  0  0  0  0
 10 11  1  0  0  0  0
 11 12  2  0  0  0  0
 15 23  1  0  0  0  0
 15 16  1  0  0  0  0
 16 19  1  0  0  0  0
 19 22  1  0  0  0  0
 22  2  1  1  0  0  0
 22 23  1  0  0  0  0
 23 24  1  1  0  0  0
 24 25  1  0  0  0  0
 25 26  1  0  0  0  0
M  CHG  2  13  -1  18  -1
M  END
>  <CHROM.1>
-38.52593879,80.17059016,123.26095720,-52.22848705,-100.36601671,53.28637683
-174.90334751,-179.17664332,-0.24819283,-13.66100203,-97.38396726,-2.08208466
0.44809222,-0.19730706

>  <Name>
ligand

>  <RI>
0

>  <Rbt.Current_Directory>
/home/itssahil/PROJECTS/Mol_Feturizer/New_Systems/rnas/2CKY

>  <Rbt.Executable>
rbdock ($Id: //depot/dev/client3/rdock/2013.1/src/exe/rbdock.cxx#4 $)

>  <Rbt.Library>
libRbt.so (2013.1, Build901 2013/11/27)

>  <Rbt.Parameter_File>
/export/apps/rDock/src/rDock_2013.1_src/data/scripts/dock_solv.prm

>  <Rbt.Receptor>
prm/pocket_docking_5.prm

>  <SCORE>
-16.9885

>  <SCORE.INTER>
-8.22274

>  <SCORE.INTER.CONST>
1

>  <SCORE.INTER.POLAR>
0

>  <SCORE.INTER.ROT>
8

>  <SCORE.INTER.SOLV>
5.87821

>  <SCORE.INTER.VDW>
-16.3746

>  <SCORE.INTER.norm>
-0.316259

>  <SCORE.INTRA>
-8.76577

>  <SCORE.INTRA.DIHEDRAL>
-10.702

>  <SCORE.INTRA.DIHEDRAL.0>
16.4846

>  <SCORE.INTRA.POLAR>
0

>  <SCORE.INTRA.POLAR.0>
0

>  <SCORE.INTRA.REPUL>
0

>  <SCORE.INTRA.REPUL.0>
0

>  <SCORE.INTRA.SOLV>
1.73006

>  <SCORE.INTRA.SOLV.lig_0>
-82.6983

>  <SCORE.INTRA.VDW>
-4.2798

>  <SCORE.INTRA.VDW.0>
-2.11466

>  <SCORE.INTRA.norm>
-0.337145

>  <SCORE.RESTR>
0

>  <SCORE.RESTR.CAVITY>
0

>  <SCORE.RESTR.norm>
0

>  <SCORE.SYSTEM>
0

>  <SCORE.SYSTEM.CONST>
0

>  <SCORE.SYSTEM.DIHEDRAL>
0

>  <SCORE.SYSTEM.SOLV>
0

>  <SCORE.SYSTEM.norm>
0

>  <SCORE.heavy>
26

>  <SCORE.norm>
-0.653404

>  <RMSD>
6.586

$$$$
ligand
 OpenBabel11021811423D
libRbt.so/2013.1/901 2013/11/27
 26 27  0  0  0  0  0  0  0  0999 V2000
   -1.1441  -22.7368  -98.5873 C   0  0  0  0  0  0  0  0  0  0  0  0
    1.4022  -16.6375  -93.3816 C   0  0  0  0  0  0  0  0  0  0  0  0
    4.7513  -12.3231  -95.7785 P   0  0  2  0  0  0  0  0  0  0  0  0
    3.5451  -12.9321  -98.1961 P   0  0  2  0  0  0  0  0  0  0  0  0
   -0.0637  -17.7708  -95.9346 C   0  0  0  0  0  0  0  0  0  0  0  0
   -0.8188  -20.1351  -95.9570 C   0  0  0  0  0  0  0  0  0  0  0  0
   -0.3082  -19.0583  -96.6704 C   0  0  0  0  0  0  0  0  0  0  0  0
   -0.0960  -19.1995  -98.0449 C   0  0  0  0  0  0  0  0  0  0  0  0
    0.3766  -18.2337  -98.8334 N   0  0  0  0  0  0  0  0  0  0  0  0
   -0.3794  -20.4005  -98.6421 N   0  0  0  0  0  0  0  0  0  0  0  0
   -0.8625  -21.4485  -97.9103 C   0  0  0  0  0  0  0  0  0  0  0  0
   -1.0922  -21.3358  -96.5764 N   0  0  0  0  0  0  0  0  0  0  0  0
    3.4090  -11.6870  -95.4760 O   0  5  0  0  0  0  0  0  0  0  0  0
    2.9867  -14.1619  -97.5160 O   0  0  0  0  0  0  0  0  0  0  0  0
    3.7202  -16.9350  -96.5283 S   0  0  0  0  0  0  0  0  0  0  0  0
    2.2138  -17.4540  -96.8714 C   0  0  0  0  0  0  0  0  0  0  0  0
    5.8019  -11.4533  -95.0933 O   0  0  0  0  0  0  0  0  0  0  0  0
    3.9823  -13.2249  -99.6169 O   0  5  0  0  0  0  0  0  0  0  0  0
    1.3247  -17.3945  -95.8150 N   0  0  0  0  0  0  0  0  0  0  0  0
    4.8452  -12.5018  -97.3801 O   0  0  0  0  0  0  0  0  0  0  0  0
    2.4802  -11.8544  -98.1766 O   0  0  0  0  0  0  0  0  0  0  0  0
    1.9777  -16.8873  -94.7188 C   0  0  1  0  0  0  0  0  0  0  0  0
    3.3174  -16.5961  -95.0204 C   0  0  2  0  0  0  0  0  0  0  0  0
    4.4826  -16.0229  -94.2520 C   0  0  0  0  0  0  0  0  0  0  0  0
    4.3966  -14.4953  -94.1675 C   0  0  0  0  0  0  0  0  0  0  0  0
    4.6511  -13.9355  -95.4500 O   0  0  0  0  0  0  0  0  0  0  0  0
  1 11  1  0  0  0  0
  3 13  1  1  0  0  0
  3 17  2  0  0  0  0
  3 20  1  0  0  0  0
  3 26  1  0  0  0  0
  4 14  1  1  0  0  0
  4 18  1  0  0  0  0
  4 21  2  0  0  0  0
  4 20  1  0  0  0  0
  5 19  1  0  0  0  0
  5  7  1  0  0  0  0
  6  7  2  0  0  0  0
  6 12  1  0  0  0  0
  7  8  1  0  0  0  0
  8  9  1  0  0  0  0
  8 10  2  0  0  0  0
 10 11  1  0  0  0  0
 11 12  2  0  0  0  0
 15 23  1  0  0  0  0
 15 16  1  0  0  0  0
 16 19  1  0  0  0  0
 19 22  1  0  0  0  0
 22  2  1  6  0  0  0
 22 23  1  0  0  0  0
 23 24  1  6  0  0  0
 24 25  1  0  0  0  0
 25 26  1  0  0  0  0
M  CHG  2  13  -1  18  -1
M  END
>  <CHROM.1>
-38.46878000,45.32309516,113.16233314,-51.41685508,99.59965486,-70.56076215
-175.84812035,-62.71757719,2.44494810,-15.94702238,-96.60813168,2.83170649
0.99068155,2.05140774

>  <Name>
ligand

>  <RI>
0

>  <Rbt.Current_Directory>
/home/itssahil/PROJECTS/Mol_Feturizer/New_Systems/rnas/2CKY

>  <Rbt.Executable>
rbdock ($Id: //depot/dev/client3/rdock/2013.1/src/exe/rbdock.cxx#4 $)

>  <Rbt.Library>
libRbt.so (2013.1, Build901 2013/11/27)

>  <Rbt.Parameter_File>
/export/apps/rDock/src/rDock_2013.1_src/data/scripts/dock_solv.prm

>  <Rbt.Receptor>
prm/pocket_docking_7.prm

>  <SCORE>
-17.6215

>  <SCORE.INTER>
-10.4866

>  <SCORE.INTER.CONST>
1

>  <SCORE.INTER.POLAR>
0

>  <SCORE.INTER.ROT>
8

>  <SCORE.INTER.SOLV>
12.6457

>  <SCORE.INTER.VDW>
-20.1397

>  <SCORE.INTER.norm>
-0.403332

>  <SCORE.INTRA>
-7.13482

>  <SCORE.INTRA.DIHEDRAL>
-10.6284

>  <SCORE.INTRA.DIHEDRAL.0>
16.4846

>  <SCORE.INTRA.POLAR>
0

>  <SCORE.INTRA.POLAR.0>
0

>  <SCORE.INTRA.REPUL>
0

>  <SCORE.INTRA.REPUL.0>
0

>  <SCORE.INTRA.SOLV>
0.942514

>  <SCORE.INTRA.SOLV.lig_0>
-82.6983

>  <SCORE.INTRA.VDW>
-2.29186

>  <SCORE.INTRA.VDW.0>
-2.11466

>  <SCORE.INTRA.norm>
-0.274416

>  <SCORE.RESTR>
0

>  <SCORE.RESTR.CAVITY>
0

>  <SCORE.RESTR.norm>
0

>  <SCORE.SYSTEM>
0

>  <SCORE.SYSTEM.CONST>
0

>  <SCORE.SYSTEM.DIHEDRAL>
0

>  <SCORE.SYSTEM.SOLV>
0

>  <SCORE.SYSTEM.norm>
0

>  <SCORE.heavy>
26

>  <SCORE.norm>
-0.677748

>  <RMSD>
6.663

$$$$
ligand
 OpenBabel11021811423D
libRbt.so/2013.1/901 2013/11/27
 26 27  0  0  0  0  0  0  0  0999 V2000
    2.9271  -16.6735  -94.3004 C   0  0  0  0  0  0  0  0  0  0  0  0
   -2.9067  -14.5460  -95.5537 C   0  0  0  0  0  0  0  0  0  0  0  0
   -2.0727  -16.9251  -99.0615 P   0  0  2  0  0  0  0  0  0  0  0  0
   -3.6352  -19.1263  -99.6811 P   0  0  2  0  0  0  0  0  0  0  0  0
   -0.8646  -12.3789  -94.5124 C   0  0  0  0  0  0  0  0  0  0  0  0
   -0.1162  -14.6180  -93.7465 C   0  0  0  0  0  0  0  0  0  0  0  0
    0.1714  -13.4668  -94.4683 C   0  0  0  0  0  0  0  0  0  0  0  0
    1.3817  -13.3914  -95.1639 C   0  0  0  0  0  0  0  0  0  0  0  0
    1.7597  -12.3453  -95.8991 N   0  0  0  0  0  0  0  0  0  0  0  0
    2.2547  -14.4462  -95.0965 N   0  0  0  0  0  0  0  0  0  0  0  0
    1.9526  -15.5581  -94.3619 C   0  0  0  0  0  0  0  0  0  0  0  0
    0.7783  -15.6652  -93.6880 N   0  0  0  0  0  0  0  0  0  0  0  0
   -1.4472  -16.7240 -100.4276 O   0  5  0  0  0  0  0  0  0  0  0  0
   -3.4705  -19.2160 -101.1816 O   0  0  0  0  0  0  0  0  0  0  0  0
   -2.4991  -11.4792  -97.9602 S   0  0  0  0  0  0  0  0  0  0  0  0
   -1.5629  -11.3022  -96.6379 C   0  0  0  0  0  0  0  0  0  0  0  0
   -1.0567  -17.7104  -98.2362 O   0  0  0  0  0  0  0  0  0  0  0  0
   -5.0009  -19.6079  -99.2356 O   0  5  0  0  0  0  0  0  0  0  0  0
   -1.6478  -12.3355  -95.7240 N   0  0  0  0  0  0  0  0  0  0  0  0
   -3.5281  -17.5835  -99.2948 O   0  0  0  0  0  0  0  0  0  0  0  0
   -2.5411  -19.9508  -99.0336 O   0  0  0  0  0  0  0  0  0  0  0  0
   -2.5304  -13.2729  -96.2011 C   0  0  1  0  0  0  0  0  0  0  0  0
   -3.0530  -12.8858  -97.4451 C   0  0  2  0  0  0  0  0  0  0  0  0
   -4.0205  -13.4938  -98.4305 C   0  0  0  0  0  0  0  0  0  0  0  0
   -3.3253  -14.5177  -99.3341 C   0  0  0  0  0  0  0  0  0  0  0  0
   -2.6447  -15.4732  -98.5300 O   0  0  0  0  0  0  0  0  0  0  0  0
  1 11  1  0  0  0  0
  3 13  1  6  0  0  0
  3 17  2  0  0  0  0
  3 20  1  0  0  0  0
  3 26  1  0  0  0  0
  4 14  1  6  0  0  0
  4 18  1  0  0  0  0
  4 21  2  0  0  0  0
  4 20  1  0  0  0  0
  5 19  1  0  0  0  0
  5  7  1  0  0  0  0
  6  7  2  0  0  0  0
  6 12  1  0  0  0  0
  7  8  1  0  0  0  0
  8  9  1  0  0  0  0
  8 10  2  0  0  0  0
 10 11  1  0  0  0  0
 11 12  2  0  0  0  0
 15 23  1  0  0  0  0
 15 16  1  0  0  0  0
 16 19  1  0  0  0  0
 19 22  1  0  0  0  0
 22  2  1  6  0  0  0
 22 23  1  0  0  0  0
 23 24  1  6  0  0  0
 24 25  1  0  0  0  0
 25 26  1  0  0  0  0
M  CHG  2  13  -1  18  -1
M  END
>  <CHROM.1>
75.57800185,-112.34662437,-100.82165759,-84.97396262,97.13860111,53.20479188
164.89070749,41.21169068,-1.64460110,-15.40493605,-97.39716213,-0.92740604
0.70698112,-2.87371410

>  <Name>
ligand

>  <RI>
0

>  <Rbt.Current_Directory>
/home/itssahil/PROJECTS/Mol_Feturizer/New_Systems/rnas/2CKY

>  <Rbt.Executable>
rbdock ($Id: //depot/dev/client3/rdock/2013.1/src/exe/rbdock.cxx#4 $)

>  <Rbt.Library>
libRbt.so (2013.1, Build901 2013/11/27)

>  <Rbt.Parameter_File>
/export/apps/rDock/src/rDock_2013.1_src/data/scripts/dock_solv.prm

>  <Rbt.Receptor>
prm/pocket_docking_6.prm

>  <SCORE>
-18.9714

>  <SCORE.INTER>
-13.321

>  <SCORE.INTER.CONST>
1

>  <SCORE.INTER.POLAR>
0

>  <SCORE.INTER.ROT>
8

>  <SCORE.INTER.SOLV>
12.9115

>  <SCORE.INTER.VDW>
-22.1179

>  <SCORE.INTER.norm>
-0.512348

>  <SCORE.INTRA>
-5.65903

>  <SCORE.INTRA.DIHEDRAL>
-9.08628

>  <SCORE.INTRA.DIHEDRAL.0>
16.4846

>  <SCORE.INTRA.POLAR>
0

>  <SCORE.INTRA.POLAR.0>
0

>  <SCORE.INTRA.REPUL>
0

>  <SCORE.INTRA.REPUL.0>
0

>  <SCORE.INTRA.SOLV>
1.57502

>  <SCORE.INTRA.SOLV.lig_0>
-82.6983

>  <SCORE.INTRA.VDW>
-1.90341

>  <SCORE.INTRA.VDW.0>
-2.11466

>  <SCORE.INTRA.norm>
-0.217655

>  <SCORE.RESTR>
0.00865598

>  <SCORE.RESTR.CAVITY>
0.00865598

>  <SCORE.RESTR.norm>
0.000332922

>  <SCORE.SYSTEM>
0

>  <SCORE.SYSTEM.CONST>
0

>  <SCORE.SYSTEM.DIHEDRAL>
0

>  <SCORE.SYSTEM.SOLV>
0

>  <SCORE.SYSTEM.norm>
0

>  <SCORE.heavy>
26

>  <SCORE.norm>
-0.72967

>  <RMSD>
6.668

$$$$
ligand
 OpenBabel11021811423D
libRbt.so/2013.1/901 2013/11/27
 26 27  0  0  0  0  0  0  0  0999 V2000
   -0.3323  -19.2237  -95.0438 C   0  0  0  0  0  0  0  0  0  0  0  0
   -2.1712  -12.5121  -98.8004 C   0  0  0  0  0  0  0  0  0  0  0  0
    2.6551  -11.3012  -97.2217 P   0  0  2  0  0  0  0  0  0  0  0  0
    1.7190  -13.8095  -97.9306 P   0  0  2  0  0  0  0  0  0  0  0  0
   -3.3701  -14.7340  -96.9091 C   0  0  0  0  0  0  0  0  0  0  0  0
   -2.2223  -16.0278  -95.1289 C   0  0  0  0  0  0  0  0  0  0  0  0
   -2.5526  -15.9175  -96.4734 C   0  0  0  0  0  0  0  0  0  0  0  0
   -2.1602  -16.9333  -97.3500 C   0  0  0  0  0  0  0  0  0  0  0  0
   -2.4307  -16.9426  -98.6556 N   0  0  0  0  0  0  0  0  0  0  0  0
   -1.4456  -17.9957  -96.8601 N   0  0  0  0  0  0  0  0  0  0  0  0
   -1.1183  -18.0670  -95.5353 C   0  0  0  0  0  0  0  0  0  0  0  0
   -1.4986  -17.1023  -94.6581 N   0  0  0  0  0  0  0  0  0  0  0  0
    3.2627  -10.1035  -97.9249 O   0  5  0  0  0  0  0  0  0  0  0  0
    0.4301  -13.5944  -97.1695 O   0  0  0  0  0  0  0  0  0  0  0  0
   -2.0577  -11.5735  -94.9966 S   0  0  0  0  0  0  0  0  0  0  0  0
   -2.7414  -13.0377  -95.2084 C   0  0  0  0  0  0  0  0  0  0  0  0
    3.6662  -11.7354  -96.1637 O   0  0  0  0  0  0  0  0  0  0  0  0
    2.7875  -14.4391  -97.0603 O   0  5  0  0  0  0  0  0  0  0  0  0
   -2.8331  -13.4507  -96.5241 N   0  0  0  0  0  0  0  0  0  0  0  0
    2.2481  -12.3689  -98.3619 O   0  0  0  0  0  0  0  0  0  0  0  0
    1.4213  -14.6871  -99.1293 O   0  0  0  0  0  0  0  0  0  0  0  0
   -2.2950  -12.4770  -97.3290 C   0  0  1  0  0  0  0  0  0  0  0  0
   -1.8313  -11.3929  -96.5672 C   0  0  2  0  0  0  0  0  0  0  0  0
   -1.1525  -10.0825  -96.8812 C   0  0  0  0  0  0  0  0  0  0  0  0
    0.1537  -10.3026  -97.6518 C   0  0  0  0  0  0  0  0  0  0  0  0
    1.1055  -10.9287  -96.8003 O   0  0  0  0  0  0  0  0  0  0  0  0
  1 11  1  0  0  0  0
  3 13  1  6  0  0  0
  3 17  2  0  0  0  0
  3 20  1  0  0  0  0
  3 26  1  0  0  0  0
  4 14  1  1  0  0  0
  4 18  1  0  0  0  0
  4 21  2  0  0  0  0
  4 20  1  0  0  0  0
  5 19  1  0  0  0  0
  5  7  1  0  0  0  0
  6  7  2  0  0  0  0
  6 12  1  0  0  0  0
  7  8  1  0  0  0  0
  8  9  1  0  0  0  0
  8 10  2  0  0  0  0
 10 11  1  0  0  0  0
 11 12  2  0  0  0  0
 15 23  1  0  0  0  0
 15 16  1  0  0  0  0
 16 19  1  0  0  0  0
 19 22  1  0  0  0  0
 22  2  1  1  0  0  0
 22 23  1  0  0  0  0
 23 24  1  1  0  0  0
 24 25  1  0  0  0  0
 25 26  1  0  0  0  0
M  CHG  2  13  -1  18  -1
M  END
>  <CHROM.1>
173.63466396,-66.33390787,53.58162177,63.11536610,122.50898394,-68.17127594
-178.05227400,45.91685475,-0.20287307,-13.60148612,-96.88019332,-2.16836329
0.25006008,-0.02625921

>  <Name>
ligand

>  <RI>
0

>  <Rbt.Current_Directory>
/home/itssahil/PROJECTS/Mol_Feturizer/New_Systems/rnas/2CKY

>  <Rbt.Executable>
rbdock ($Id: //depot/dev/client3/rdock/2013.1/src/exe/rbdock.cxx#4 $)

>  <Rbt.Library>
libRbt.so (2013.1, Build901 2013/11/27)

>  <Rbt.Parameter_File>
/export/apps/rDock/src/rDock_2013.1_src/data/scripts/dock_solv.prm

>  <Rbt.Receptor>
prm/pocket_docking_6.prm

>  <SCORE>
-18.3839

>  <SCORE.INTER>
-9.34876

>  <SCORE.INTER.CONST>
1

>  <SCORE.INTER.POLAR>
0

>  <SCORE.INTER.ROT>
8

>  <SCORE.INTER.SOLV>
5.0242

>  <SCORE.INTER.VDW>
-16.8406

>  <SCORE.INTER.norm>
-0.359568

>  <SCORE.INTRA>
-9.03519

>  <SCORE.INTRA.DIHEDRAL>
-11.3757

>  <SCORE.INTRA.DIHEDRAL.0>
16.4846

>  <SCORE.INTRA.POLAR>
0

>  <SCORE.INTRA.POLAR.0>
0

>  <SCORE.INTRA.REPUL>
0

>  <SCORE.INTRA.REPUL.0>
0

>  <SCORE.INTRA.SOLV>
-0.214947

>  <SCORE.INTRA.SOLV.lig_0>
-82.6983

>  <SCORE.INTRA.VDW>
-3.23986

>  <SCORE.INTRA.VDW.0>
-2.11466

>  <SCORE.INTRA.norm>
-0.347507

>  <SCORE.RESTR>
0

>  <SCORE.RESTR.CAVITY>
0

>  <SCORE.RESTR.norm>
0

>  <SCORE.SYSTEM>
0

>  <SCORE.SYSTEM.CONST>
0

>  <SCORE.SYSTEM.DIHEDRAL>
0

>  <SCORE.SYSTEM.SOLV>
0

>  <SCORE.SYSTEM.norm>
0

>  <SCORE.heavy>
26

>  <SCORE.norm>
-0.707075

>  <RMSD>
6.697

$$$$
ligand
 OpenBabel11021811423D
libRbt.so/2013.1/901 2013/11/27
 26 27  0  0  0  0  0  0  0  0999 V2000
   -0.4479  -19.2124  -94.8651 C   0  0  0  0  0  0  0  0  0  0  0  0
   -1.8528  -12.4918  -98.7937 C   0  0  0  0  0  0  0  0  0  0  0  0
    2.5514  -11.2635  -98.0931 P   0  0  2  0  0  0  0  0  0  0  0  0
    4.3172  -12.6968  -96.5126 P   0  0  2  0  0  0  0  0  0  0  0  0
   -3.2540  -14.7159  -97.0497 C   0  0  0  0  0  0  0  0  0  0  0  0
   -2.2295  -15.9677  -95.1672 C   0  0  0  0  0  0  0  0  0  0  0  0
   -2.4951  -15.9040  -96.5290 C   0  0  0  0  0  0  0  0  0  0  0  0
   -2.0959  -16.9670  -97.3445 C   0  0  0  0  0  0  0  0  0  0  0  0
   -2.3073  -17.0230  -98.6598 N   0  0  0  0  0  0  0  0  0  0  0  0
   -1.4384  -18.0289  -96.7794 N   0  0  0  0  0  0  0  0  0  0  0  0
   -1.1737  -18.0543  -95.4390 C   0  0  0  0  0  0  0  0  0  0  0  0
   -1.5623  -17.0428  -94.6202 N   0  0  0  0  0  0  0  0  0  0  0  0
    2.6334  -12.0266  -99.4004 O   0  5  0  0  0  0  0  0  0  0  0  0
    5.0502  -12.9831  -97.8038 O   0  0  0  0  0  0  0  0  0  0  0  0
   -2.1435  -11.5667  -94.9960 S   0  0  0  0  0  0  0  0  0  0  0  0
   -2.8053  -13.0277  -95.2852 C   0  0  0  0  0  0  0  0  0  0  0  0
    3.5083  -10.0818  -98.2259 O   0  0  0  0  0  0  0  0  0  0  0  0
    4.2568  -13.9179  -95.6176 O   0  5  0  0  0  0  0  0  0  0  0  0
   -2.7571  -13.4359  -96.6048 N   0  0  0  0  0  0  0  0  0  0  0  0
    2.8180  -12.3225  -96.9042 O   0  0  0  0  0  0  0  0  0  0  0  0
    5.0223  -11.5544  -95.8100 O   0  0  0  0  0  0  0  0  0  0  0  0
   -2.1330  -12.4613  -97.3438 C   0  0  1  0  0  0  0  0  0  0  0  0
   -1.7500  -11.3815  -96.5328 C   0  0  2  0  0  0  0  0  0  0  0  0
   -1.0373  -10.0725  -96.7675 C   0  0  0  0  0  0  0  0  0  0  0  0
    0.4815  -10.2354  -96.6448 C   0  0  0  0  0  0  0  0  0  0  0  0
    0.9620  -11.0209  -97.7287 O   0  0  0  0  0  0  0  0  0  0  0  0
  1 11  1  0  0  0  0
  3 13  1  6  0  0  0
  3 17  2  0  0  0  0
  3 20  1  0  0  0  0
  3 26  1  0  0  0  0
  4 14  1  6  0  0  0
  4 18  1  0  0  0  0
  4 21  2  0  0  0  0
  4 20  1  0  0  0  0
  5 19  1  0  0  0  0
  5  7  1  0  0  0  0
  6  7  2  0  0  0  0
  6 12  1  0  0  0  0
  7  8  1  0  0  0  0
  8  9  1  0  0  0  0
  8 10  2  0  0  0  0
 10 11  1  0  0  0  0
 11 12  2  0  0  0  0
 15 23  1  0  0  0  0
 15 16  1  0  0  0  0
 16 19  1  0  0  0  0
 19 22  1  0  0  0  0
 22  2  1  1  0  0  0
 22 23  1  0  0  0  0
 23 24  1  1  0  0  0
 24 25  1  0  0  0  0
 25 26  1  0  0  0  0
M  CHG  2  13  -1  18  -1
M  END
>  <CHROM.1>
82.94036484,-66.08402142,48.85749955,-47.15824856,91.42557851,68.50821532
171.14896259,-173.82335013,0.36984432,-13.35911411,-96.75761403,-2.44232694
0.06315181,-0.16428775

>  <Name>
ligand

>  <RI>
0

>  <Rbt.Current_Directory>
/home/itssahil/PROJECTS/Mol_Feturizer/New_Systems/rnas/2CKY

>  <Rbt.Executable>
rbdock ($Id: //depot/dev/client3/rdock/2013.1/src/exe/rbdock.cxx#4 $)

>  <Rbt.Library>
libRbt.so (2013.1, Build901 2013/11/27)

>  <Rbt.Parameter_File>
/export/apps/rDock/src/rDock_2013.1_src/data/scripts/dock_solv.prm

>  <Rbt.Receptor>
prm/pocket_docking_6.prm

>  <SCORE>
-18.8859

>  <SCORE.INTER>
-12.0997

>  <SCORE.INTER.CONST>
1

>  <SCORE.INTER.POLAR>
0

>  <SCORE.INTER.ROT>
8

>  <SCORE.INTER.SOLV>
10.6422

>  <SCORE.INTER.VDW>
-20.5472

>  <SCORE.INTER.norm>
-0.465372

>  <SCORE.INTRA>
-6.78619

>  <SCORE.INTRA.DIHEDRAL>
-10.072

>  <SCORE.INTRA.DIHEDRAL.0>
16.4846

>  <SCORE.INTRA.POLAR>
0

>  <SCORE.INTRA.POLAR.0>
0

>  <SCORE.INTRA.REPUL>
0

>  <SCORE.INTRA.REPUL.0>
0

>  <SCORE.INTRA.SOLV>
-0.0351187

>  <SCORE.INTRA.SOLV.lig_0>
-82.6983

>  <SCORE.INTRA.VDW>
-1.73263

>  <SCORE.INTRA.VDW.0>
-2.11466

>  <SCORE.INTRA.norm>
-0.261007

>  <SCORE.RESTR>
0

>  <SCORE.RESTR.CAVITY>
0

>  <SCORE.RESTR.norm>
0

>  <SCORE.SYSTEM>
0

>  <SCORE.SYSTEM.CONST>
0

>  <SCORE.SYSTEM.DIHEDRAL>
0

>  <SCORE.SYSTEM.SOLV>
0

>  <SCORE.SYSTEM.norm>
0

>  <SCORE.heavy>
26

>  <SCORE.norm>
-0.72638

>  <RMSD>
6.701

$$$$
ligand
 OpenBabel11021811423D
libRbt.so/2013.1/901 2013/11/27
 26 27  0  0  0  0  0  0  0  0999 V2000
   -0.5750  -17.5996  -90.9938 C   0  0  0  0  0  0  0  0  0  0  0  0
   -0.6953  -17.4100  -97.3938 C   0  0  0  0  0  0  0  0  0  0  0  0
   -2.0653  -21.0664  -97.1487 P   0  0  2  0  0  0  0  0  0  0  0  0
   -1.2369  -22.4269  -99.4144 P   0  0  2  0  0  0  0  0  0  0  0  0
   -1.2201  -14.6873  -95.8895 C   0  0  0  0  0  0  0  0  0  0  0  0
   -1.7517  -16.5707  -94.3628 C   0  0  0  0  0  0  0  0  0  0  0  0
   -1.0335  -15.4020  -94.5806 C   0  0  0  0  0  0  0  0  0  0  0  0
   -0.1323  -14.9719  -93.6024 C   0  0  0  0  0  0  0  0  0  0  0  0
    0.6195  -13.8756  -93.7060 N   0  0  0  0  0  0  0  0  0  0  0  0
    0.0005  -15.7048  -92.4515 N   0  0  0  0  0  0  0  0  0  0  0  0
   -0.7344  -16.8403  -92.2570 C   0  0  0  0  0  0  0  0  0  0  0  0
   -1.6066  -17.2899  -93.1959 N   0  0  0  0  0  0  0  0  0  0  0  0
   -1.4594  -20.6766  -95.8149 O   0  5  0  0  0  0  0  0  0  0  0  0
   -2.2106  -23.5311  -99.0691 O   0  0  0  0  0  0  0  0  0  0  0  0
   -4.1095  -15.7260  -98.3270 S   0  0  0  0  0  0  0  0  0  0  0  0
   -3.3088  -14.8322  -97.2242 C   0  0  0  0  0  0  0  0  0  0  0  0
   -3.2606  -21.9611  -96.8314 O   0  0  0  0  0  0  0  0  0  0  0  0
    0.0564  -22.9750  -99.9824 O   0  5  0  0  0  0  0  0  0  0  0  0
   -2.0926  -15.3543  -96.8262 N   0  0  0  0  0  0  0  0  0  0  0  0
   -0.8773  -21.6834  -98.0509 O   0  0  0  0  0  0  0  0  0  0  0  0
   -1.9052  -21.4985 -100.4080 O   0  0  0  0  0  0  0  0  0  0  0  0
   -1.8773  -16.5306  -97.5009 C   0  0  1  0  0  0  0  0  0  0  0  0
   -2.9453  -16.8187  -98.3651 C   0  0  2  0  0  0  0  0  0  0  0  0
   -3.2570  -17.9253  -99.3421 C   0  0  0  0  0  0  0  0  0  0  0  0
   -3.4810  -19.2586  -98.6206 C   0  0  0  0  0  0  0  0  0  0  0  0
   -2.2537  -19.7025  -98.0553 O   0  0  0  0  0  0  0  0  0  0  0  0
  1 11  1  0  0  0  0
  3 13  1  1  0  0  0
  3 17  2  0  0  0  0
  3 20  1  0  0  0  0
  3 26  1  0  0  0  0
  4 14  1  1  0  0  0
  4 18  1  0  0  0  0
  4 21  2  0  0  0  0
  4 20  1  0  0  0  0
  5 19  1  0  0  0  0
  5  7  1  0  0  0  0
  6  7  2  0  0  0  0
  6 12  1  0  0  0  0
  7  8  1  0  0  0  0
  8  9  1  0  0  0  0
  8 10  2  0  0  0  0
 10 11  1  0  0  0  0
 11 12  2  0  0  0  0
 15 23  1  0  0  0  0
 15 16  1  0  0  0  0
 16 19  1  0  0  0  0
 19 22  1  0  0  0  0
 22  2  1  6  0  0  0
 22 23  1  0  0  0  0
 23 24  1  6  0  0  0
 24 25  1  0  0  0  0
 25 26  1  0  0  0  0
M  CHG  2  13  -1  18  -1
M  END
>  <CHROM.1>
169.11845589,114.10541162,-3.33891821,-56.12260774,-113.39744094,-68.10661633
177.69335926,-123.84197068,-1.76917911,-18.53891371,-96.82302361,-1.38238858
1.11042732,-2.66595868

>  <Name>
ligand

>  <RI>
0

>  <Rbt.Current_Directory>
/home/itssahil/PROJECTS/Mol_Feturizer/New_Systems/rnas/2CKY

>  <Rbt.Executable>
rbdock ($Id: //depot/dev/client3/rdock/2013.1/src/exe/rbdock.cxx#4 $)

>  <Rbt.Library>
libRbt.so (2013.1, Build901 2013/11/27)

>  <Rbt.Parameter_File>
/export/apps/rDock/src/rDock_2013.1_src/data/scripts/dock_solv.prm

>  <Rbt.Receptor>
prm/pocket_docking_8.prm

>  <SCORE>
-19.841

>  <SCORE.INTER>
-14.093

>  <SCORE.INTER.CONST>
1

>  <SCORE.INTER.POLAR>
0

>  <SCORE.INTER.ROT>
8

>  <SCORE.INTER.SOLV>
16.9898

>  <SCORE.INTER.VDW>
-23.9919

>  <SCORE.INTER.norm>
-0.542038

>  <SCORE.INTRA>
-5.74797

>  <SCORE.INTRA.DIHEDRAL>
-8.85687

>  <SCORE.INTRA.DIHEDRAL.0>
16.4846

>  <SCORE.INTRA.POLAR>
0

>  <SCORE.INTRA.POLAR.0>
0

>  <SCORE.INTRA.REPUL>
0

>  <SCORE.INTRA.REPUL.0>
0

>  <SCORE.INTRA.SOLV>
0.813749

>  <SCORE.INTRA.SOLV.lig_0>
-82.6983

>  <SCORE.INTRA.VDW>
-1.72641

>  <SCORE.INTRA.VDW.0>
-2.11466

>  <SCORE.INTRA.norm>
-0.221076

>  <SCORE.RESTR>
0

>  <SCORE.RESTR.CAVITY>
0

>  <SCORE.RESTR.norm>
0

>  <SCORE.SYSTEM>
0

>  <SCORE.SYSTEM.CONST>
0

>  <SCORE.SYSTEM.DIHEDRAL>
0

>  <SCORE.SYSTEM.SOLV>
0

>  <SCORE.SYSTEM.norm>
0

>  <SCORE.heavy>
26

>  <SCORE.norm>
-0.763114

>  <RMSD>
6.718

$$$$
ligand
 OpenBabel11021811423D
libRbt.so/2013.1/901 2013/11/27
 26 27  0  0  0  0  0  0  0  0999 V2000
   -0.2182  -19.1692  -95.0682 C   0  0  0  0  0  0  0  0  0  0  0  0
   -2.3171  -12.4538  -98.7751 C   0  0  0  0  0  0  0  0  0  0  0  0
    2.0530  -11.7361  -99.2448 P   0  0  2  0  0  0  0  0  0  0  0  0
    3.7324   -9.5403  -99.4143 P   0  0  2  0  0  0  0  0  0  0  0  0
   -3.2655  -14.5755  -96.6419 C   0  0  0  0  0  0  0  0  0  0  0  0
   -2.1078  -15.9741  -94.9496 C   0  0  0  0  0  0  0  0  0  0  0  0
   -2.4458  -15.7830  -96.2831 C   0  0  0  0  0  0  0  0  0  0  0  0
   -2.0588  -16.7442  -97.2216 C   0  0  0  0  0  0  0  0  0  0  0  0
   -2.3368  -16.6748  -98.5237 N   0  0  0  0  0  0  0  0  0  0  0  0
   -1.3416  -17.8341  -96.8008 N   0  0  0  0  0  0  0  0  0  0  0  0
   -1.0067  -17.9851  -95.4846 C   0  0  0  0  0  0  0  0  0  0  0  0
   -1.3816  -17.0750  -94.5487 N   0  0  0  0  0  0  0  0  0  0  0  0
    3.2916  -12.2386  -98.5298 O   0  5  0  0  0  0  0  0  0  0  0  0
    4.9202  -10.2398 -100.0360 O   0  0  0  0  0  0  0  0  0  0  0  0
   -1.5248  -11.4318  -95.0750 S   0  0  0  0  0  0  0  0  0  0  0  0
   -2.2918  -12.8690  -95.1239 C   0  0  0  0  0  0  0  0  0  0  0  0
    1.6074  -12.8627 -100.1733 O   0  0  0  0  0  0  0  0  0  0  0  0
    3.7588   -9.6243  -97.9017 O   0  5  0  0  0  0  0  0  0  0  0  0
   -2.6209  -13.3084  -96.3922 N   0  0  0  0  0  0  0  0  0  0  0  0
    2.4288  -10.3133  -99.9085 O   0  0  0  0  0  0  0  0  0  0  0  0
    3.7417   -8.0949  -99.8689 O   0  0  0  0  0  0  0  0  0  0  0  0
   -2.1887  -12.3786  -97.3056 C   0  0  1  0  0  0  0  0  0  0  0  0
   -1.5605  -11.2984  -96.6661 C   0  0  2  0  0  0  0  0  0  0  0  0
   -0.8933  -10.0270  -97.1297 C   0  0  0  0  0  0  0  0  0  0  0  0
   -0.0815  -10.2584  -98.4087 C   0  0  0  0  0  0  0  0  0  0  0  0
    1.0186  -11.1133  -98.1225 O   0  0  0  0  0  0  0  0  0  0  0  0
  1 11  1  0  0  0  0
  3 13  1  1  0  0  0
  3 17  2  0  0  0  0
  3 20  1  0  0  0  0
  3 26  1  0  0  0  0
  4 14  1  6  0  0  0
  4 18  1  0  0  0  0
  4 21  2  0  0  0  0
  4 20  1  0  0  0  0
  5 19  1  0  0  0  0
  5  7  1  0  0  0  0
  6  7  2  0  0  0  0
  6 12  1  0  0  0  0
  7  8  1  0  0  0  0
  8  9  1  0  0  0  0
  8 10  2  0  0  0  0
 10 11  1  0  0  0  0
 11 12  2  0  0  0  0
 15 23  1  0  0  0  0
 15 16  1  0  0  0  0
 16 19  1  0  0  0  0
 19 22  1  0  0  0  0
 22  2  1  6  0  0  0
 22 23  1  0  0  0  0
 23 24  1  6  0  0  0
 24 25  1  0  0  0  0
 25 26  1  0  0  0  0
M  CHG  2  13  -1  18  -1
M  END
>  <CHROM.1>
-16.37850323,-64.94507433,63.82712421,76.24211716,141.02127178,-66.72419161
173.48173186,163.51701405,0.22313451,-12.73890294,-97.59651647,-2.29819235
0.52135540,-0.06743072

>  <Name>
ligand

>  <RI>
0

>  <Rbt.Current_Directory>
/home/itssahil/PROJECTS/Mol_Feturizer/New_Systems/rnas/2CKY

>  <Rbt.Executable>
rbdock ($Id: //depot/dev/client3/rdock/2013.1/src/exe/rbdock.cxx#4 $)

>  <Rbt.Library>
libRbt.so (2013.1, Build901 2013/11/27)

>  <Rbt.Parameter_File>
/export/apps/rDock/src/rDock_2013.1_src/data/scripts/dock_solv.prm

>  <Rbt.Receptor>
prm/pocket_docking_8.prm

>  <SCORE>
-18.0536

>  <SCORE.INTER>
-13.7416

>  <SCORE.INTER.CONST>
1

>  <SCORE.INTER.POLAR>
0

>  <SCORE.INTER.ROT>
8

>  <SCORE.INTER.SOLV>
11.7697

>  <SCORE.INTER.VDW>
-22.0176

>  <SCORE.INTER.norm>
-0.528523

>  <SCORE.INTRA>
-4.31202

>  <SCORE.INTRA.DIHEDRAL>
-8.8982

>  <SCORE.INTRA.DIHEDRAL.0>
16.4846

>  <SCORE.INTRA.POLAR>
0

>  <SCORE.INTRA.POLAR.0>
0

>  <SCORE.INTRA.REPUL>
0

>  <SCORE.INTRA.REPUL.0>
0

>  <SCORE.INTRA.SOLV>
1.86483

>  <SCORE.INTRA.SOLV.lig_0>
-82.6983

>  <SCORE.INTRA.VDW>
-0.795336

>  <SCORE.INTRA.VDW.0>
-2.11466

>  <SCORE.INTRA.norm>
-0.165847

>  <SCORE.RESTR>
0

>  <SCORE.RESTR.CAVITY>
0

>  <SCORE.RESTR.norm>
0

>  <SCORE.SYSTEM>
0

>  <SCORE.SYSTEM.CONST>
0

>  <SCORE.SYSTEM.DIHEDRAL>
0

>  <SCORE.SYSTEM.SOLV>
0

>  <SCORE.SYSTEM.norm>
0

>  <SCORE.heavy>
26

>  <SCORE.norm>
-0.69437

>  <RMSD>
6.732

$$$$
ligand
 OpenBabel11021811423D
libRbt.so/2013.1/901 2013/11/27
 26 27  0  0  0  0  0  0  0  0999 V2000
   -1.8971  -10.9143  -96.4892 C   0  0  0  0  0  0  0  0  0  0  0  0
    1.5526  -16.7896  -94.8530 C   0  0  0  0  0  0  0  0  0  0  0  0
   -1.5826  -21.3312  -97.9537 P   0  0  2  0  0  0  0  0  0  0  0  0
    0.4284  -20.4441  -99.6388 P   0  0  2  0  0  0  0  0  0  0  0  0
    0.2014  -14.7892  -92.8222 C   0  0  0  0  0  0  0  0  0  0  0  0
   -0.0124  -12.4759  -93.6958 C   0  0  0  0  0  0  0  0  0  0  0  0
   -0.3943  -13.8078  -93.7921 C   0  0  0  0  0  0  0  0  0  0  0  0
   -1.2688  -14.1865  -94.8148 C   0  0  0  0  0  0  0  0  0  0  0  0
   -1.6939  -15.4345  -95.0136 N   0  0  0  0  0  0  0  0  0  0  0  0
   -1.7374  -13.2301  -95.6780 N   0  0  0  0  0  0  0  0  0  0  0  0
   -1.3590  -11.9236  -95.5462 C   0  0  0  0  0  0  0  0  0  0  0  0
   -0.4995  -11.5292  -94.5714 N   0  0  0  0  0  0  0  0  0  0  0  0
   -2.2487  -22.6643  -97.6761 O   0  5  0  0  0  0  0  0  0  0  0  0
   -0.6524  -19.8066 -100.4825 O   0  0  0  0  0  0  0  0  0  0  0  0
   -1.4554  -18.3418  -92.8767 S   0  0  0  0  0  0  0  0  0  0  0  0
   -1.2024  -16.7976  -92.4211 C   0  0  0  0  0  0  0  0  0  0  0  0
   -2.6555  -20.4356  -98.5676 O   0  0  0  0  0  0  0  0  0  0  0  0
    1.5206  -21.0558 -100.4924 O   0  5  0  0  0  0  0  0  0  0  0  0
   -0.1512  -16.1684  -93.0609 N   0  0  0  0  0  0  0  0  0  0  0  0
   -0.2582  -21.6315  -98.8264 O   0  0  0  0  0  0  0  0  0  0  0  0
    1.0001  -19.3839  -98.7196 O   0  0  0  0  0  0  0  0  0  0  0  0
    0.4144  -17.0503  -93.9485 C   0  0  1  0  0  0  0  0  0  0  0  0
   -0.2481  -18.2875  -93.9209 C   0  0  2  0  0  0  0  0  0  0  0  0
   -0.0958  -19.5947  -94.6589 C   0  0  0  0  0  0  0  0  0  0  0  0
   -0.9069  -19.5981  -95.9590 C   0  0  0  0  0  0  0  0  0  0  0  0
   -0.7700  -20.8611  -96.5987 O   0  0  0  0  0  0  0  0  0  0  0  0
  1 11  1  0  0  0  0
  3 13  1  1  0  0  0
  3 17  2  0  0  0  0
  3 20  1  0  0  0  0
  3 26  1  0  0  0  0
  4 14  1  6  0  0  0
  4 18  1  0  0  0  0
  4 21  2  0  0  0  0
  4 20  1  0  0  0  0
  5 19  1  0  0  0  0
  5  7  1  0  0  0  0
  6  7  2  0  0  0  0
  6 12  1  0  0  0  0
  7  8  1  0  0  0  0
  8  9  1  0  0  0  0
  8 10  2  0  0  0  0
 10 11  1  0  0  0  0
 11 12  2  0  0  0  0
 15 23  1  0  0  0  0
 15 16  1  0  0  0  0
 16 19  1  0  0  0  0
 19 22  1  0  0  0  0
 22  2  1  6  0  0  0
 22 23  1  0  0  0  0
 23 24  1  6  0  0  0
 24 25  1  0  0  0  0
 25 26  1  0  0  0  0
M  CHG  2  13  -1  18  -1
M  END
>  <CHROM.1>
162.16834894,-94.95481393,-174.71869361,-52.67006502,91.40791601,-178.11185669
174.37855319,-127.66055308,-0.64534883,-17.77371336,-96.15077994,-1.96354596
-1.49349793,-2.99030980

>  <Name>
ligand

>  <RI>
0

>  <Rbt.Current_Directory>
/home/itssahil/PROJECTS/Mol_Feturizer/New_Systems/rnas/2CKY

>  <Rbt.Executable>
rbdock ($Id: //depot/dev/client3/rdock/2013.1/src/exe/rbdock.cxx#4 $)

>  <Rbt.Library>
libRbt.so (2013.1, Build901 2013/11/27)

>  <Rbt.Parameter_File>
/export/apps/rDock/src/rDock_2013.1_src/data/scripts/dock_solv.prm

>  <Rbt.Receptor>
prm/pocket_docking_7.prm

>  <SCORE>
-14.1884

>  <SCORE.INTER>
-10.6449

>  <SCORE.INTER.CONST>
1

>  <SCORE.INTER.POLAR>
0

>  <SCORE.INTER.ROT>
8

>  <SCORE.INTER.SOLV>
17.379

>  <SCORE.INTER.VDW>
-21.8229

>  <SCORE.INTER.norm>
-0.40942

>  <SCORE.INTRA>
-3.54346

>  <SCORE.INTRA.DIHEDRAL>
-8.48438

>  <SCORE.INTRA.DIHEDRAL.0>
16.4846

>  <SCORE.INTRA.POLAR>
0

>  <SCORE.INTRA.POLAR.0>
0

>  <SCORE.INTRA.REPUL>
0

>  <SCORE.INTRA.REPUL.0>
0

>  <SCORE.INTRA.SOLV>
5.34019

>  <SCORE.INTRA.SOLV.lig_0>
-82.6983

>  <SCORE.INTRA.VDW>
-1.97136

>  <SCORE.INTRA.VDW.0>
-2.11466

>  <SCORE.INTRA.norm>
-0.136287

>  <SCORE.RESTR>
0

>  <SCORE.RESTR.CAVITY>
0

>  <SCORE.RESTR.norm>
0

>  <SCORE.SYSTEM>
0

>  <SCORE.SYSTEM.CONST>
0

>  <SCORE.SYSTEM.DIHEDRAL>
0

>  <SCORE.SYSTEM.SOLV>
0

>  <SCORE.SYSTEM.norm>
0

>  <SCORE.heavy>
26

>  <SCORE.norm>
-0.545706

>  <RMSD>
6.750

$$$$
ligand
 OpenBabel11021811423D
libRbt.so/2013.1/901 2013/11/27
 26 27  0  0  0  0  0  0  0  0999 V2000
   -4.0230  -15.1355  -98.2997 C   0  0  0  0  0  0  0  0  0  0  0  0
    1.9271  -17.0387  -98.3847 C   0  0  0  0  0  0  0  0  0  0  0  0
    3.9332  -12.3703  -97.3973 P   0  0  2  0  0  0  0  0  0  0  0  0
    3.8566  -10.9629  -99.7814 P   0  0  2  0  0  0  0  0  0  0  0  0
    0.0050  -18.8883  -96.7007 C   0  0  0  0  0  0  0  0  0  0  0  0
   -1.1783  -16.7150  -96.5090 C   0  0  0  0  0  0  0  0  0  0  0  0
   -1.0823  -17.9485  -97.1401 C   0  0  0  0  0  0  0  0  0  0  0  0
   -1.9607  -18.2404  -98.1877 C   0  0  0  0  0  0  0  0  0  0  0  0
   -1.9547  -19.3832  -98.8745 N   0  0  0  0  0  0  0  0  0  0  0  0
   -2.9011  -17.3096  -98.5466 N   0  0  0  0  0  0  0  0  0  0  0  0
   -2.9841  -16.1120  -97.8939 C   0  0  0  0  0  0  0  0  0  0  0  0
   -2.1348  -15.7953  -96.8824 N   0  0  0  0  0  0  0  0  0  0  0  0
    2.4260  -12.2430  -97.2949 O   0  5  0  0  0  0  0  0  0  0  0  0
    4.3512   -9.7544  -99.0187 O   0  0  0  0  0  0  0  0  0  0  0  0
    3.1346  -17.6300  -94.7029 S   0  0  0  0  0  0  0  0  0  0  0  0
    1.7279  -18.4052  -94.9792 C   0  0  0  0  0  0  0  0  0  0  0  0
    4.5168  -11.3387  -96.4355 O   0  0  0  0  0  0  0  0  0  0  0  0
    2.3439  -10.9978  -99.8599 O   0  5  0  0  0  0  0  0  0  0  0  0
    1.2182  -18.2463  -96.2541 N   0  0  0  0  0  0  0  0  0  0  0  0
    4.3177  -12.2492  -98.9605 O   0  0  0  0  0  0  0  0  0  0  0  0
    4.4625  -10.9284 -101.1697 O   0  0  0  0  0  0  0  0  0  0  0  0
    2.0746  -17.4501  -96.9738 C   0  0  1  0  0  0  0  0  0  0  0  0
    3.1755  -17.0609  -96.1947 C   0  0  2  0  0  0  0  0  0  0  0  0
    4.4107  -16.2286  -96.4356 C   0  0  0  0  0  0  0  0  0  0  0  0
    4.1648  -14.7551  -96.0942 C   0  0  0  0  0  0  0  0  0  0  0  0
    4.3329  -13.9641  -97.2642 O   0  0  0  0  0  0  0  0  0  0  0  0
  1 11  1  0  0  0  0
  3 13  1  1  0  0  0
  3 17  2  0  0  0  0
  3 20  1  0  0  0  0
  3 26  1  0  0  0  0
  4 14  1  1  0  0  0
  4 18  1  0  0  0  0
  4 21  2  0  0  0  0
  4 20  1  0  0  0  0
  5 19  1  0  0  0  0
  5  7  1  0  0  0  0
  6  7  2  0  0  0  0
  6 12  1  0  0  0  0
  7  8  1  0  0  0  0
  8  9  1  0  0  0  0
  8 10  2  0  0  0  0
 10 11  1  0  0  0  0
 11 12  2  0  0  0  0
 15 23  1  0  0  0  0
 15 16  1  0  0  0  0
 16 19  1  0  0  0  0
 19 22  1  0  0  0  0
 22  2  1  6  0  0  0
 22 23  1  0  0  0  0
 23 24  1  6  0  0  0
 24 25  1  0  0  0  0
 25 26  1  0  0  0  0
M  CHG  2  13  -1  18  -1
M  END
>  <CHROM.1>
55.99440443,119.90806515,-32.25960731,53.76209680,-89.81225148,-118.11821890
169.83777936,-66.54448797,1.85302044,-14.89524940,-97.57084019,2.26804979
0.36226736,2.60121894

>  <Name>
ligand

>  <RI>
0

>  <Rbt.Current_Directory>
/home/itssahil/PROJECTS/Mol_Feturizer/New_Systems/rnas/2CKY

>  <Rbt.Executable>
rbdock ($Id: //depot/dev/client3/rdock/2013.1/src/exe/rbdock.cxx#4 $)

>  <Rbt.Library>
libRbt.so (2013.1, Build901 2013/11/27)

>  <Rbt.Parameter_File>
/export/apps/rDock/src/rDock_2013.1_src/data/scripts/dock_solv.prm

>  <Rbt.Receptor>
prm/pocket_docking_6.prm

>  <SCORE>
-17.7745

>  <SCORE.INTER>
-13.7844

>  <SCORE.INTER.CONST>
1

>  <SCORE.INTER.POLAR>
0

>  <SCORE.INTER.ROT>
8

>  <SCORE.INTER.SOLV>
11.515

>  <SCORE.INTER.VDW>
-21.9613

>  <SCORE.INTER.norm>
-0.530169

>  <SCORE.INTRA>
-3.99014

>  <SCORE.INTRA.DIHEDRAL>
-5.2515

>  <SCORE.INTRA.DIHEDRAL.0>
16.4846

>  <SCORE.INTRA.POLAR>
0

>  <SCORE.INTRA.POLAR.0>
0

>  <SCORE.INTRA.REPUL>
0

>  <SCORE.INTRA.REPUL.0>
0

>  <SCORE.INTRA.SOLV>
0.450694

>  <SCORE.INTRA.SOLV.lig_0>
-82.6983

>  <SCORE.INTRA.VDW>
-1.58974

>  <SCORE.INTRA.VDW.0>
-2.11466

>  <SCORE.INTRA.norm>
-0.153467

>  <SCORE.RESTR>
0

>  <SCORE.RESTR.CAVITY>
0

>  <SCORE.RESTR.norm>
0

>  <SCORE.SYSTEM>
0

>  <SCORE.SYSTEM.CONST>
0

>  <SCORE.SYSTEM.DIHEDRAL>
0

>  <SCORE.SYSTEM.SOLV>
0

>  <SCORE.SYSTEM.norm>
0

>  <SCORE.heavy>
26

>  <SCORE.norm>
-0.683636

>  <RMSD>
6.818

$$$$
ligand
 OpenBabel11021811423D
libRbt.so/2013.1/901 2013/11/27
 26 27  0  0  0  0  0  0  0  0999 V2000
   -1.3625  -17.7427  -93.7531 C   0  0  0  0  0  0  0  0  0  0  0  0
   -0.3883  -13.7639  -99.7677 C   0  0  0  0  0  0  0  0  0  0  0  0
    3.5481  -13.0187  -97.7904 P   0  0  2  0  0  0  0  0  0  0  0  0
    4.5999  -15.4951  -98.4477 P   0  0  2  0  0  0  0  0  0  0  0  0
   -2.9699  -14.2799  -98.0298 C   0  0  0  0  0  0  0  0  0  0  0  0
   -2.5271  -14.7604  -95.6354 C   0  0  0  0  0  0  0  0  0  0  0  0
   -2.5176  -15.2184  -96.9466 C   0  0  0  0  0  0  0  0  0  0  0  0
   -2.1424  -16.5417  -97.1962 C   0  0  0  0  0  0  0  0  0  0  0  0
   -2.1078  -17.0948  -98.4089 N   0  0  0  0  0  0  0  0  0  0  0  0
   -1.7770  -17.3397  -96.1432 N   0  0  0  0  0  0  0  0  0  0  0  0
   -1.7774  -16.8551  -94.8655 C   0  0  0  0  0  0  0  0  0  0  0  0
   -2.1510  -15.5784  -94.5915 N   0  0  0  0  0  0  0  0  0  0  0  0
    4.8290  -12.3472  -98.2446 O   0  5  0  0  0  0  0  0  0  0  0  0
    4.3284  -16.5724  -99.4735 O   0  0  0  0  0  0  0  0  0  0  0  0
   -1.4985  -10.6676  -97.6361 S   0  0  0  0  0  0  0  0  0  0  0  0
   -2.5178  -11.9188  -97.4087 C   0  0  0  0  0  0  0  0  0  0  0  0
    3.6070  -13.0676  -96.2659 O   0  0  0  0  0  0  0  0  0  0  0  0
    4.5436  -16.0376  -97.0342 O   0  5  0  0  0  0  0  0  0  0  0  0
   -2.2098  -13.0570  -98.1298 N   0  0  0  0  0  0  0  0  0  0  0  0
    3.4334  -14.4176  -98.5878 O   0  0  0  0  0  0  0  0  0  0  0  0
    5.9621  -14.8976  -98.7363 O   0  0  0  0  0  0  0  0  0  0  0  0
   -1.0776  -12.8164  -98.8684 C   0  0  1  0  0  0  0  0  0  0  0  0
   -0.6046  -11.5120  -98.6553 C   0  0  2  0  0  0  0  0  0  0  0  0
    0.5685  -10.7080  -99.1593 C   0  0  0  0  0  0  0  0  0  0  0  0
    1.8253  -10.9726  -98.3234 C   0  0  0  0  0  0  0  0  0  0  0  0
    2.2800  -12.2993  -98.5597 O   0  0  0  0  0  0  0  0  0  0  0  0
  1 11  1  0  0  0  0
  3 13  1  6  0  0  0
  3 17  2  0  0  0  0
  3 20  1  0  0  0  0
  3 26  1  0  0  0  0
  4 14  1  6  0  0  0
  4 18  1  0  0  0  0
  4 21  2  0  0  0  0
  4 20  1  0  0  0  0
  5 19  1  0  0  0  0
  5  7  1  0  0  0  0
  6  7  2  0  0  0  0
  6 12  1  0  0  0  0
  7  8  1  0  0  0  0
  8  9  1  0  0  0  0
  8 10  2  0  0  0  0
 10 11  1  0  0  0  0
 11 12  2  0  0  0  0
 15 23  1  0  0  0  0
 15 16  1  0  0  0  0
 16 19  1  0  0  0  0
 19 22  1  0  0  0  0
 22  2  1  1  0  0  0
 22 23  1  0  0  0  0
 23 24  1  1  0  0  0
 24 25  1  0  0  0  0
 25 26  1  0  0  0  0
M  CHG  2  13  -1  18  -1
M  END
>  <CHROM.1>
58.28767892,-88.22137728,59.23049943,-170.61431436,94.56832528,69.06520017
-176.03065346,-69.17978438,0.86082182,-14.05219846,-97.64309893,-2.98064136
0.19728814,-0.35199645

>  <Name>
ligand

>  <RI>
0

>  <Rbt.Current_Directory>
/home/itssahil/PROJECTS/Mol_Feturizer/New_Systems/rnas/2CKY

>  <Rbt.Executable>
rbdock ($Id: //depot/dev/client3/rdock/2013.1/src/exe/rbdock.cxx#4 $)

>  <Rbt.Library>
libRbt.so (2013.1, Build901 2013/11/27)

>  <Rbt.Parameter_File>
/export/apps/rDock/src/rDock_2013.1_src/data/scripts/dock_solv.prm

>  <Rbt.Receptor>
prm/pocket_docking_4.prm

>  <SCORE>
-15.6588

>  <SCORE.INTER>
-9.37462

>  <SCORE.INTER.CONST>
1

>  <SCORE.INTER.POLAR>
0

>  <SCORE.INTER.ROT>
8

>  <SCORE.INTER.SOLV>
12.5509

>  <SCORE.INTER.VDW>
-19.3667

>  <SCORE.INTER.norm>
-0.360562

>  <SCORE.INTRA>
-6.28417

>  <SCORE.INTRA.DIHEDRAL>
-11.1824

>  <SCORE.INTRA.DIHEDRAL.0>
16.4846

>  <SCORE.INTRA.POLAR>
0

>  <SCORE.INTRA.POLAR.0>
0

>  <SCORE.INTRA.REPUL>
0

>  <SCORE.INTRA.REPUL.0>
0

>  <SCORE.INTRA.SOLV>
2.78742

>  <SCORE.INTRA.SOLV.lig_0>
-82.6983

>  <SCORE.INTRA.VDW>
-2.08667

>  <SCORE.INTRA.VDW.0>
-2.11466

>  <SCORE.INTRA.norm>
-0.241699

>  <SCORE.RESTR>
0

>  <SCORE.RESTR.CAVITY>
0

>  <SCORE.RESTR.norm>
0

>  <SCORE.SYSTEM>
0

>  <SCORE.SYSTEM.CONST>
0

>  <SCORE.SYSTEM.DIHEDRAL>
0

>  <SCORE.SYSTEM.SOLV>
0

>  <SCORE.SYSTEM.norm>
0

>  <SCORE.heavy>
26

>  <SCORE.norm>
-0.602261

>  <RMSD>
6.835

$$$$
ligand
 OpenBabel11021811423D
libRbt.so/2013.1/901 2013/11/27
 26 27  0  0  0  0  0  0  0  0999 V2000
    3.7698  -12.6055  -91.1207 C   0  0  0  0  0  0  0  0  0  0  0  0
   -0.7870   -9.9978  -97.6439 C   0  0  0  0  0  0  0  0  0  0  0  0
   -0.8194  -14.7346  -99.2199 P   0  0  2  0  0  0  0  0  0  0  0  0
   -2.8938  -16.5443  -98.9160 P   0  0  2  0  0  0  0  0  0  0  0  0
    0.2601   -9.7927  -94.6753 C   0  0  0  0  0  0  0  0  0  0  0  0
    0.7349  -11.0440  -92.5850 C   0  0  0  0  0  0  0  0  0  0  0  0
    1.2245  -10.5006  -93.7657 C   0  0  0  0  0  0  0  0  0  0  0  0
    2.5741  -10.6813  -94.0826 C   0  0  0  0  0  0  0  0  0  0  0  0
    3.1521  -10.2178  -95.1912 N   0  0  0  0  0  0  0  0  0  0  0  0
    3.3759  -11.3711  -93.2105 N   0  0  0  0  0  0  0  0  0  0  0  0
    2.8698  -11.8774  -92.0466 C   0  0  0  0  0  0  0  0  0  0  0  0
    1.5598  -11.7299  -91.7196 N   0  0  0  0  0  0  0  0  0  0  0  0
   -0.1971  -13.9355 -100.3479 O   0  5  0  0  0  0  0  0  0  0  0  0
   -3.8715  -17.2664  -99.8156 O   0  0  0  0  0  0  0  0  0  0  0  0
   -2.7886  -12.2187  -95.1093 S   0  0  0  0  0  0  0  0  0  0  0  0
   -1.5895  -11.4171  -94.3506 C   0  0  0  0  0  0  0  0  0  0  0  0
    0.3075  -15.5637  -98.6096 O   0  0  0  0  0  0  0  0  0  0  0  0
   -3.6033  -15.7320  -97.8518 O   0  5  0  0  0  0  0  0  0  0  0  0
   -0.8207  -10.6118  -95.1695 N   0  0  0  0  0  0  0  0  0  0  0  0
   -2.0886  -15.5201  -99.8347 O   0  0  0  0  0  0  0  0  0  0  0  0
   -1.9824  -17.5750  -98.2815 O   0  0  0  0  0  0  0  0  0  0  0  0
   -1.3000  -10.7050  -96.4529 C   0  0  1  0  0  0  0  0  0  0  0  0
   -2.4004  -11.5741  -96.5180 C   0  0  2  0  0  0  0  0  0  0  0  0
   -3.3229  -12.0453  -97.6150 C   0  0  0  0  0  0  0  0  0  0  0  0
   -2.5371  -12.6629  -98.7767 C   0  0  0  0  0  0  0  0  0  0  0  0
   -1.7110  -13.7109  -98.2847 O   0  0  0  0  0  0  0  0  0  0  0  0
  1 11  1  0  0  0  0
  3 13  1  6  0  0  0
  3 17  2  0  0  0  0
  3 20  1  0  0  0  0
  3 26  1  0  0  0  0
  4 14  1  6  0  0  0
  4 18  1  0  0  0  0
  4 21  2  0  0  0  0
  4 20  1  0  0  0  0
  5 19  1  0  0  0  0
  5  7  1  0  0  0  0
  6  7  2  0  0  0  0
  6 12  1  0  0  0  0
  7  8  1  0  0  0  0
  8  9  1  0  0  0  0
  8 10  2  0  0  0  0
 10 11  1  0  0  0  0
 11 12  2  0  0  0  0
 15 23  1  0  0  0  0
 15 16  1  0  0  0  0
 16 19  1  0  0  0  0
 19 22  1  0  0  0  0
 22  2  1  1  0  0  0
 22 23  1  0  0  0  0
 23 24  1  1  0  0  0
 24 25  1  0  0  0  0
 25 26  1  0  0  0  0
M  CHG  2  13  -1  18  -1
M  END
>  <CHROM.1>
175.29581280,48.44000333,-60.51451115,-171.51575245,-125.02301984,55.51782168
173.47707807,40.51531876,-0.76814034,-13.10892109,-96.53501441,-0.94260205
0.58756767,-2.62101354

>  <Name>
ligand

>  <RI>
0

>  <Rbt.Current_Directory>
/home/itssahil/PROJECTS/Mol_Feturizer/New_Systems/rnas/2CKY

>  <Rbt.Executable>
rbdock ($Id: //depot/dev/client3/rdock/2013.1/src/exe/rbdock.cxx#4 $)

>  <Rbt.Library>
libRbt.so (2013.1, Build901 2013/11/27)

>  <Rbt.Parameter_File>
/export/apps/rDock/src/rDock_2013.1_src/data/scripts/dock_solv.prm

>  <Rbt.Receptor>
prm/pocket_docking_7.prm

>  <SCORE>
-17.5128

>  <SCORE.INTER>
-11.1822

>  <SCORE.INTER.CONST>
1

>  <SCORE.INTER.POLAR>
0

>  <SCORE.INTER.ROT>
8

>  <SCORE.INTER.SOLV>
8.979

>  <SCORE.INTER.VDW>
-19.3812

>  <SCORE.INTER.norm>
-0.430086

>  <SCORE.INTRA>
-6.3306

>  <SCORE.INTRA.DIHEDRAL>
-11.0975

>  <SCORE.INTRA.DIHEDRAL.0>
16.4846

>  <SCORE.INTRA.POLAR>
0

>  <SCORE.INTRA.POLAR.0>
0

>  <SCORE.INTRA.REPUL>
0

>  <SCORE.INTRA.REPUL.0>
0

>  <SCORE.INTRA.SOLV>
1.83528

>  <SCORE.INTRA.SOLV.lig_0>
-82.6983

>  <SCORE.INTRA.VDW>
-1.6995

>  <SCORE.INTRA.VDW.0>
-2.11466

>  <SCORE.INTRA.norm>
-0.243485

>  <SCORE.RESTR>
0

>  <SCORE.RESTR.CAVITY>
0

>  <SCORE.RESTR.norm>
0

>  <SCORE.SYSTEM>
0

>  <SCORE.SYSTEM.CONST>
0

>  <SCORE.SYSTEM.DIHEDRAL>
0

>  <SCORE.SYSTEM.SOLV>
0

>  <SCORE.SYSTEM.norm>
0

>  <SCORE.heavy>
26

>  <SCORE.norm>
-0.673571

>  <RMSD>
6.862

$$$$
ligand
 OpenBabel11021811423D
libRbt.so/2013.1/901 2013/11/27
 26 27  0  0  0  0  0  0  0  0999 V2000
   -0.0098  -12.0239  -90.8485 C   0  0  0  0  0  0  0  0  0  0  0  0
   -0.1516  -13.8921  -99.1907 C   0  0  0  0  0  0  0  0  0  0  0  0
   -3.0719  -17.7803  -98.9429 P   0  0  2  0  0  0  0  0  0  0  0  0
   -1.3728  -18.9583  -97.1001 P   0  0  2  0  0  0  0  0  0  0  0  0
    0.2643  -12.1823  -96.5725 C   0  0  0  0  0  0  0  0  0  0  0  0
    0.2319  -10.9764  -94.4034 C   0  0  0  0  0  0  0  0  0  0  0  0
    0.2137  -12.1944  -95.0705 C   0  0  0  0  0  0  0  0  0  0  0  0
    0.0946  -13.3705  -94.3243 C   0  0  0  0  0  0  0  0  0  0  0  0
    0.0533  -14.5934  -94.8541 N   0  0  0  0  0  0  0  0  0  0  0  0
    0.0194  -13.2870  -92.9580 N   0  0  0  0  0  0  0  0  0  0  0  0
    0.0596  -12.0749  -92.3283 C   0  0  0  0  0  0  0  0  0  0  0  0
    0.1602  -10.9153  -93.0282 N   0  0  0  0  0  0  0  0  0  0  0  0
   -4.4146  -18.4524  -98.7341 O   0  5  0  0  0  0  0  0  0  0  0  0
   -0.2023  -18.9408  -98.0573 O   0  0  0  0  0  0  0  0  0  0  0  0
   -3.4822  -12.4716  -97.6899 S   0  0  0  0  0  0  0  0  0  0  0  0
   -2.2059  -12.0341  -96.7757 C   0  0  0  0  0  0  0  0  0  0  0  0
   -2.3919  -18.5275 -100.0872 O   0  0  0  0  0  0  0  0  0  0  0  0
   -2.1832  -20.2323  -97.2260 O   0  5  0  0  0  0  0  0  0  0  0  0
   -0.9840  -12.4988  -97.2244 N   0  0  0  0  0  0  0  0  0  0  0  0
   -2.3259  -17.7486  -97.5117 O   0  0  0  0  0  0  0  0  0  0  0  0
   -0.8362  -18.8041  -95.6915 O   0  0  0  0  0  0  0  0  0  0  0  0
   -1.1850  -13.2285  -98.3701 C   0  0  1  0  0  0  0  0  0  0  0  0
   -2.5461  -13.2656  -98.7116 C   0  0  2  0  0  0  0  0  0  0  0  0
   -3.3469  -13.8779  -99.8342 C   0  0  0  0  0  0  0  0  0  0  0  0
   -2.9081  -15.3202 -100.1091 C   0  0  0  0  0  0  0  0  0  0  0  0
   -3.3107  -16.1514  -99.0275 O   0  0  0  0  0  0  0  0  0  0  0  0
  1 11  1  0  0  0  0
  3 13  1  1  0  0  0
  3 17  2  0  0  0  0
  3 20  1  0  0  0  0
  3 26  1  0  0  0  0
  4 14  1  6  0  0  0
  4 18  1  0  0  0  0
  4 21  2  0  0  0  0
  4 20  1  0  0  0  0
  5 19  1  0  0  0  0
  5  7  1  0  0  0  0
  6  7  2  0  0  0  0
  6 12  1  0  0  0  0
  7  8  1  0  0  0  0
  8  9  1  0  0  0  0
  8 10  2  0  0  0  0
 10 11  1  0  0  0  0
 11 12  2  0  0  0  0
 15 23  1  0  0  0  0
 15 16  1  0  0  0  0
 16 19  1  0  0  0  0
 19 22  1  0  0  0  0
 22  2  1  6  0  0  0
 22 23  1  0  0  0  0
 23 24  1  6  0  0  0
 24 25  1  0  0  0  0
 25 26  1  0  0  0  0
M  CHG  2  13  -1  18  -1
M  END
>  <CHROM.1>
90.85756432,40.32616600,-106.11290595,65.50668913,-135.41230779,70.07963702
178.22603405,-123.86037465,-1.58041755,-15.14534818,-96.93574822,-0.93411410
1.08704984,-3.10309428

>  <Name>
ligand

>  <RI>
0

>  <Rbt.Current_Directory>
/home/itssahil/PROJECTS/Mol_Feturizer/New_Systems/rnas/2CKY

>  <Rbt.Executable>
rbdock ($Id: //depot/dev/client3/rdock/2013.1/src/exe/rbdock.cxx#4 $)

>  <Rbt.Library>
libRbt.so (2013.1, Build901 2013/11/27)

>  <Rbt.Parameter_File>
/export/apps/rDock/src/rDock_2013.1_src/data/scripts/dock_solv.prm

>  <Rbt.Receptor>
prm/pocket_docking_6.prm

>  <SCORE>
-14.7253

>  <SCORE.INTER>
-9.73292

>  <SCORE.INTER.CONST>
1

>  <SCORE.INTER.POLAR>
0

>  <SCORE.INTER.ROT>
8

>  <SCORE.INTER.SOLV>
15.9717

>  <SCORE.INTER.VDW>
-20.7458

>  <SCORE.INTER.norm>
-0.374343

>  <SCORE.INTRA>
-4.99241

>  <SCORE.INTRA.DIHEDRAL>
-8.11728

>  <SCORE.INTRA.DIHEDRAL.0>
16.4846

>  <SCORE.INTRA.POLAR>
0

>  <SCORE.INTRA.POLAR.0>
0

>  <SCORE.INTRA.REPUL>
0

>  <SCORE.INTRA.REPUL.0>
0

>  <SCORE.INTRA.SOLV>
1.32608

>  <SCORE.INTRA.SOLV.lig_0>
-82.6983

>  <SCORE.INTRA.VDW>
-1.59681

>  <SCORE.INTRA.VDW.0>
-2.11466

>  <SCORE.INTRA.norm>
-0.192016

>  <SCORE.RESTR>
0

>  <SCORE.RESTR.CAVITY>
0

>  <SCORE.RESTR.norm>
0

>  <SCORE.SYSTEM>
0

>  <SCORE.SYSTEM.CONST>
0

>  <SCORE.SYSTEM.DIHEDRAL>
0

>  <SCORE.SYSTEM.SOLV>
0

>  <SCORE.SYSTEM.norm>
0

>  <SCORE.heavy>
26

>  <SCORE.norm>
-0.566359

>  <RMSD>
6.873

$$$$
ligand
 OpenBabel11021811423D
libRbt.so/2013.1/901 2013/11/27
 26 27  0  0  0  0  0  0  0  0999 V2000
    3.2676  -15.7772  -93.7912 C   0  0  0  0  0  0  0  0  0  0  0  0
   -2.4669  -15.2541  -95.2207 C   0  0  0  0  0  0  0  0  0  0  0  0
   -3.4447  -18.8102  -99.3916 P   0  0  2  0  0  0  0  0  0  0  0  0
   -2.2535  -20.5440  -97.5901 P   0  0  2  0  0  0  0  0  0  0  0  0
   -1.2582  -12.3834  -94.7209 C   0  0  0  0  0  0  0  0  0  0  0  0
   -0.0111  -14.0766  -93.4024 C   0  0  0  0  0  0  0  0  0  0  0  0
   -0.0395  -13.2368  -94.5082 C   0  0  0  0  0  0  0  0  0  0  0  0
    1.0360  -13.2604  -95.4010 C   0  0  0  0  0  0  0  0  0  0  0  0
    1.1138  -12.5106  -96.5008 N   0  0  0  0  0  0  0  0  0  0  0  0
    2.0929  -14.0960  -95.1477 N   0  0  0  0  0  0  0  0  0  0  0  0
    2.1013  -14.8968  -94.0405 C   0  0  0  0  0  0  0  0  0  0  0  0
    1.0640  -14.9056  -93.1638 N   0  0  0  0  0  0  0  0  0  0  0  0
   -4.5817  -19.6000 -100.0093 O   0  5  0  0  0  0  0  0  0  0  0  0
   -1.8301  -21.0947  -98.9333 O   0  0  0  0  0  0  0  0  0  0  0  0
   -3.4036  -12.6449  -97.9916 S   0  0  0  0  0  0  0  0  0  0  0  0
   -2.4813  -11.9547  -96.8387 C   0  0  0  0  0  0  0  0  0  0  0  0
   -2.2612  -18.9448 -100.3462 O   0  0  0  0  0  0  0  0  0  0  0  0
   -3.0054  -21.5739  -96.7718 O   0  5  0  0  0  0  0  0  0  0  0  0
   -2.1080  -12.7998  -95.8108 N   0  0  0  0  0  0  0  0  0  0  0  0
   -3.2602  -19.3422  -97.8787 O   0  0  0  0  0  0  0  0  0  0  0  0
   -1.0124  -20.0806  -96.8547 O   0  0  0  0  0  0  0  0  0  0  0  0
   -2.6324  -14.0454  -96.0534 C   0  0  1  0  0  0  0  0  0  0  0  0
   -3.3666  -14.0588  -97.2498 C   0  0  2  0  0  0  0  0  0  0  0  0
   -4.1332  -15.1069  -98.0182 C   0  0  0  0  0  0  0  0  0  0  0  0
   -3.2212  -16.2614  -98.4468 C   0  0  0  0  0  0  0  0  0  0  0  0
   -4.0138  -17.3236  -98.9631 O   0  0  0  0  0  0  0  0  0  0  0  0
  1 11  1  0  0  0  0
  3 13  1  6  0  0  0
  3 17  2  0  0  0  0
  3 20  1  0  0  0  0
  3 26  1  0  0  0  0
  4 14  1  6  0  0  0
  4 18  1  0  0  0  0
  4 21  2  0  0  0  0
  4 20  1  0  0  0  0
  5 19  1  0  0  0  0
  5  7  1  0  0  0  0
  6  7  2  0  0  0  0
  6 12  1  0  0  0  0
  7  8  1  0  0  0  0
  8  9  1  0  0  0  0
  8 10  2  0  0  0  0
 10 11  1  0  0  0  0
 11 12  2  0  0  0  0
 15 23  1  0  0  0  0
 15 16  1  0  0  0  0
 16 19  1  0  0  0  0
 19 22  1  0  0  0  0
 22  2  1  6  0  0  0
 22 23  1  0  0  0  0
 23 24  1  6  0  0  0
 24 25  1  0  0  0  0
 25 26  1  0  0  0  0
M  CHG  2  13  -1  18  -1
M  END
>  <CHROM.1>
90.65710903,-125.55810964,-107.47587848,-9.32880207,118.80350723,170.23671861
-173.42268040,-174.88661658,-1.78909125,-16.30578046,-96.95778722,-1.06880193
0.67225709,-2.96547985

>  <Name>
ligand

>  <RI>
0

>  <Rbt.Current_Directory>
/home/itssahil/PROJECTS/Mol_Feturizer/New_Systems/rnas/2CKY

>  <Rbt.Executable>
rbdock ($Id: //depot/dev/client3/rdock/2013.1/src/exe/rbdock.cxx#4 $)

>  <Rbt.Library>
libRbt.so (2013.1, Build901 2013/11/27)

>  <Rbt.Parameter_File>
/export/apps/rDock/src/rDock_2013.1_src/data/scripts/dock_solv.prm

>  <Rbt.Receptor>
prm/pocket_docking_6.prm

>  <SCORE>
-18.1813

>  <SCORE.INTER>
-13.4022

>  <SCORE.INTER.CONST>
1

>  <SCORE.INTER.POLAR>
0

>  <SCORE.INTER.ROT>
8

>  <SCORE.INTER.SOLV>
15.9639

>  <SCORE.INTER.VDW>
-23.1894

>  <SCORE.INTER.norm>
-0.515469

>  <SCORE.INTRA>
-4.78047

>  <SCORE.INTRA.DIHEDRAL>
-7.9221

>  <SCORE.INTRA.DIHEDRAL.0>
16.4846

>  <SCORE.INTRA.POLAR>
0

>  <SCORE.INTRA.POLAR.0>
0

>  <SCORE.INTRA.REPUL>
0

>  <SCORE.INTRA.REPUL.0>
0

>  <SCORE.INTRA.SOLV>
0.275982

>  <SCORE.INTRA.SOLV.lig_0>
-82.6983

>  <SCORE.INTRA.VDW>
-0.957414

>  <SCORE.INTRA.VDW.0>
-2.11466

>  <SCORE.INTRA.norm>
-0.183864

>  <SCORE.RESTR>
0.00133992

>  <SCORE.RESTR.CAVITY>
0.00133992

>  <SCORE.RESTR.norm>
5.15355e-05

>  <SCORE.SYSTEM>
0

>  <SCORE.SYSTEM.CONST>
0

>  <SCORE.SYSTEM.DIHEDRAL>
0

>  <SCORE.SYSTEM.SOLV>
0

>  <SCORE.SYSTEM.norm>
0

>  <SCORE.heavy>
26

>  <SCORE.norm>
-0.699282

>  <RMSD>
6.932

$$$$
ligand
 OpenBabel11021811423D
libRbt.so/2013.1/901 2013/11/27
 26 27  0  0  0  0  0  0  0  0999 V2000
   -1.1821  -17.2541  -93.4106 C   0  0  0  0  0  0  0  0  0  0  0  0
    0.8414  -19.3288  -99.2513 C   0  0  0  0  0  0  0  0  0  0  0  0
    4.2416  -16.3167  -97.7724 P   0  0  2  0  0  0  0  0  0  0  0  0
    2.2772  -17.1220  -95.9939 P   0  0  2  0  0  0  0  0  0  0  0  0
   -1.9802  -17.9331  -99.0469 C   0  0  0  0  0  0  0  0  0  0  0  0
   -1.2405  -18.7332  -96.8168 C   0  0  0  0  0  0  0  0  0  0  0  0
   -1.8133  -17.7159  -97.5691 C   0  0  0  0  0  0  0  0  0  0  0  0
   -2.1582  -16.5193  -96.9339 C   0  0  0  0  0  0  0  0  0  0  0  0
   -2.7009  -15.4710  -97.5537 N   0  0  0  0  0  0  0  0  0  0  0  0
   -1.9389  -16.3941  -95.5864 N   0  0  0  0  0  0  0  0  0  0  0  0
   -1.3915  -17.4200  -94.8688 C   0  0  0  0  0  0  0  0  0  0  0  0
   -1.0333  -18.5882  -95.4618 N   0  0  0  0  0  0  0  0  0  0  0  0
    5.7280  -16.5633  -97.9397 O   0  5  0  0  0  0  0  0  0  0  0  0
    1.2608  -17.1675  -97.1125 O   0  0  0  0  0  0  0  0  0  0  0  0
    0.5265  -16.0838 -101.4271 S   0  0  0  0  0  0  0  0  0  0  0  0
   -0.8682  -16.3874 -100.6404 C   0  0  0  0  0  0  0  0  0  0  0  0
    4.0836  -14.8244  -97.4932 O   0  0  0  0  0  0  0  0  0  0  0  0
    2.3104  -15.7658  -95.3191 O   0  5  0  0  0  0  0  0  0  0  0  0
   -0.8545  -17.5222  -99.8516 N   0  0  0  0  0  0  0  0  0  0  0  0
    3.7076  -17.3552  -96.6578 O   0  0  0  0  0  0  0  0  0  0  0  0
    1.9317  -18.2071  -94.9944 O   0  0  0  0  0  0  0  0  0  0  0  0
    0.3844  -18.1070  -99.9440 C   0  0  1  0  0  0  0  0  0  0  0  0
    1.2252  -17.3740 -100.7962 C   0  0  2  0  0  0  0  0  0  0  0  0
    2.6549  -17.5106 -101.2587 C   0  0  0  0  0  0  0  0  0  0  0  0
    3.6011  -16.6640 -100.4007 C   0  0  0  0  0  0  0  0  0  0  0  0
    3.4496  -17.0242  -99.0332 O   0  0  0  0  0  0  0  0  0  0  0  0
  1 11  1  0  0  0  0
  3 13  1  6  0  0  0
  3 17  2  0  0  0  0
  3 20  1  0  0  0  0
  3 26  1  0  0  0  0
  4 14  1  6  0  0  0
  4 18  1  0  0  0  0
  4 21  2  0  0  0  0
  4 20  1  0  0  0  0
  5 19  1  0  0  0  0
  5  7  1  0  0  0  0
  6  7  2  0  0  0  0
  6 12  1  0  0  0  0
  7  8  1  0  0  0  0
  8  9  1  0  0  0  0
  8 10  2  0  0  0  0
 10 11  1  0  0  0  0
 11 12  2  0  0  0  0
 15 23  1  0  0  0  0
 15 16  1  0  0  0  0
 16 19  1  0  0  0  0
 19 22  1  0  0  0  0
 22  2  1  1  0  0  0
 22 23  1  0  0  0  0
 23 24  1  1  0  0  0
 24 25  1  0  0  0  0
 25 26  1  0  0  0  0
M  CHG  2  13  -1  18  -1
M  END
>  <CHROM.1>
165.07865820,-106.38926160,-89.29477589,60.43427751,84.15600836,55.81733076
-177.64814465,-63.03668382,1.12692633,-17.03084954,-97.84349367,-2.64895188
-0.12651331,-1.54040967

>  <Name>
ligand

>  <RI>
0

>  <Rbt.Current_Directory>
/home/itssahil/PROJECTS/Mol_Feturizer/New_Systems/rnas/2CKY

>  <Rbt.Executable>
rbdock ($Id: //depot/dev/client3/rdock/2013.1/src/exe/rbdock.cxx#4 $)

>  <Rbt.Library>
libRbt.so (2013.1, Build901 2013/11/27)

>  <Rbt.Parameter_File>
/export/apps/rDock/src/rDock_2013.1_src/data/scripts/dock_solv.prm

>  <Rbt.Receptor>
prm/pocket_docking_5.prm

>  <SCORE>
-19.6803

>  <SCORE.INTER>
-10.2078

>  <SCORE.INTER.CONST>
1

>  <SCORE.INTER.POLAR>
0

>  <SCORE.INTER.ROT>
8

>  <SCORE.INTER.SOLV>
13.0414

>  <SCORE.INTER.VDW>
-20.0857

>  <SCORE.INTER.norm>
-0.392607

>  <SCORE.INTRA>
-9.47246

>  <SCORE.INTRA.DIHEDRAL>
-11.1064

>  <SCORE.INTRA.DIHEDRAL.0>
16.4846

>  <SCORE.INTRA.POLAR>
0

>  <SCORE.INTRA.POLAR.0>
0

>  <SCORE.INTRA.REPUL>
0

>  <SCORE.INTRA.REPUL.0>
0

>  <SCORE.INTRA.SOLV>
1.92422

>  <SCORE.INTRA.SOLV.lig_0>
-82.6983

>  <SCORE.INTRA.VDW>
-4.88139

>  <SCORE.INTRA.VDW.0>
-2.11466

>  <SCORE.INTRA.norm>
-0.364325

>  <SCORE.RESTR>
0

>  <SCORE.RESTR.CAVITY>
0

>  <SCORE.RESTR.norm>
0

>  <SCORE.SYSTEM>
0

>  <SCORE.SYSTEM.CONST>
0

>  <SCORE.SYSTEM.DIHEDRAL>
0

>  <SCORE.SYSTEM.SOLV>
0

>  <SCORE.SYSTEM.norm>
0

>  <SCORE.heavy>
26

>  <SCORE.norm>
-0.756933

>  <RMSD>
6.933

$$$$
ligand
 OpenBabel11021811423D
libRbt.so/2013.1/901 2013/11/27
 26 27  0  0  0  0  0  0  0  0999 V2000
    4.2250  -15.5607  -93.2870 C   0  0  0  0  0  0  0  0  0  0  0  0
    2.0317  -17.7926 -100.1791 C   0  0  0  0  0  0  0  0  0  0  0  0
   -1.5868  -17.0590  -98.6137 P   0  0  2  0  0  0  0  0  0  0  0  0
   -0.3428  -16.6047  -96.1814 P   0  0  2  0  0  0  0  0  0  0  0  0
    4.5035  -16.2488  -98.9715 C   0  0  0  0  0  0  0  0  0  0  0  0
    4.0926  -17.0851  -96.6710 C   0  0  0  0  0  0  0  0  0  0  0  0
    4.4207  -16.0121  -97.4897 C   0  0  0  0  0  0  0  0  0  0  0  0
    4.7118  -14.7783  -96.9004 C   0  0  0  0  0  0  0  0  0  0  0  0
    5.0511  -13.6837  -97.5818 N   0  0  0  0  0  0  0  0  0  0  0  0
    4.6455  -14.6603  -95.5362 N   0  0  0  0  0  0  0  0  0  0  0  0
    4.3005  -15.7291  -94.7578 C   0  0  0  0  0  0  0  0  0  0  0  0
    4.0267  -16.9432  -95.3015 N   0  0  0  0  0  0  0  0  0  0  0  0
   -2.6290  -15.9739  -98.4280 O   0  5  0  0  0  0  0  0  0  0  0  0
    0.9638  -16.0189  -95.6952 O   0  0  0  0  0  0  0  0  0  0  0  0
    2.0439  -13.9576 -100.9888 S   0  0  0  0  0  0  0  0  0  0  0  0
    3.3362  -14.3586 -100.0803 C   0  0  0  0  0  0  0  0  0  0  0  0
   -2.2656  -18.3738  -98.2391 O   0  0  0  0  0  0  0  0  0  0  0  0
   -0.5190  -18.0396  -95.7279 O   0  5  0  0  0  0  0  0  0  0  0  0
    3.4119  -15.6950  -99.7364 N   0  0  0  0  0  0  0  0  0  0  0  0
   -0.2811  -16.6160  -97.7742 O   0  0  0  0  0  0  0  0  0  0  0  0
   -1.4729  -15.7386  -95.6633 O   0  0  0  0  0  0  0  0  0  0  0  0
    2.3357  -16.3508 -100.2816 C   0  0  1  0  0  0  0  0  0  0  0  0
    1.5186  -15.4658 -101.0025 C   0  0  2  0  0  0  0  0  0  0  0  0
    0.2490  -15.6021 -101.8062 C   0  0  0  0  0  0  0  0  0  0  0  0
   -0.9798  -15.6931 -100.8952 C   0  0  0  0  0  0  0  0  0  0  0  0
   -0.8896  -16.8655 -100.0950 O   0  0  0  0  0  0  0  0  0  0  0  0
  1 11  1  0  0  0  0
  3 13  1  1  0  0  0
  3 17  2  0  0  0  0
  3 20  1  0  0  0  0
  3 26  1  0  0  0  0
  4 14  1  1  0  0  0
  4 18  1  0  0  0  0
  4 21  2  0  0  0  0
  4 20  1  0  0  0  0
  5 19  1  0  0  0  0
  5  7  1  0  0  0  0
  6  7  2  0  0  0  0
  6 12  1  0  0  0  0
  7  8  1  0  0  0  0
  8  9  1  0  0  0  0
  8 10  2  0  0  0  0
 10 11  1  0  0  0  0
 11 12  2  0  0  0  0
 15 23  1  0  0  0  0
 15 16  1  0  0  0  0
 16 19  1  0  0  0  0
 19 22  1  0  0  0  0
 22  2  1  6  0  0  0
 22 23  1  0  0  0  0
 23 24  1  6  0  0  0
 24 25  1  0  0  0  0
 25 26  1  0  0  0  0
M  CHG  2  13  -1  18  -1
M  END
>  <CHROM.1>
68.93758415,79.49557867,106.81937340,-174.36652755,-102.08366852,-62.95583392
153.28149319,15.63198600,1.37743937,-16.05040534,-98.04390585,0.40839476
0.30117701,1.76711071

>  <Name>
ligand

>  <RI>
0

>  <Rbt.Current_Directory>
/home/itssahil/PROJECTS/Mol_Feturizer/New_Systems/rnas/2CKY

>  <Rbt.Executable>
rbdock ($Id: //depot/dev/client3/rdock/2013.1/src/exe/rbdock.cxx#4 $)

>  <Rbt.Library>
libRbt.so (2013.1, Build901 2013/11/27)

>  <Rbt.Parameter_File>
/export/apps/rDock/src/rDock_2013.1_src/data/scripts/dock_solv.prm

>  <Rbt.Receptor>
prm/pocket_docking_5.prm

>  <SCORE>
-14.0438

>  <SCORE.INTER>
-8.93887

>  <SCORE.INTER.CONST>
1

>  <SCORE.INTER.POLAR>
0

>  <SCORE.INTER.ROT>
8

>  <SCORE.INTER.SOLV>
9.95794

>  <SCORE.INTER.VDW>
-18.2119

>  <SCORE.INTER.norm>
-0.343803

>  <SCORE.INTRA>
-5.10492

>  <SCORE.INTRA.DIHEDRAL>
-6.68536

>  <SCORE.INTRA.DIHEDRAL.0>
16.4846

>  <SCORE.INTRA.POLAR>
0

>  <SCORE.INTRA.POLAR.0>
0

>  <SCORE.INTRA.REPUL>
0

>  <SCORE.INTRA.REPUL.0>
0

>  <SCORE.INTRA.SOLV>
3.20692

>  <SCORE.INTRA.SOLV.lig_0>
-82.6983

>  <SCORE.INTRA.VDW>
-3.3657

>  <SCORE.INTRA.VDW.0>
-2.11466

>  <SCORE.INTRA.norm>
-0.196343

>  <SCORE.RESTR>
0

>  <SCORE.RESTR.CAVITY>
0

>  <SCORE.RESTR.norm>
0

>  <SCORE.SYSTEM>
0

>  <SCORE.SYSTEM.CONST>
0

>  <SCORE.SYSTEM.DIHEDRAL>
0

>  <SCORE.SYSTEM.SOLV>
0

>  <SCORE.SYSTEM.norm>
0

>  <SCORE.heavy>
26

>  <SCORE.norm>
-0.540146

>  <RMSD>
6.949

$$$$
ligand
 OpenBabel11021811423D
libRbt.so/2013.1/901 2013/11/27
 26 27  0  0  0  0  0  0  0  0999 V2000
    1.7326  -18.5761  -93.6202 C   0  0  0  0  0  0  0  0  0  0  0  0
    2.7851  -14.2112 -100.6777 C   0  0  0  0  0  0  0  0  0  0  0  0
    0.6369  -10.0775  -98.2861 P   0  0  2  0  0  0  0  0  0  0  0  0
    0.7173  -10.5212  -95.5535 P   0  0  2  0  0  0  0  0  0  0  0  0
    3.5755  -16.4718  -98.6243 C   0  0  0  0  0  0  0  0  0  0  0  0
    3.8800  -17.0268  -96.2244 C   0  0  0  0  0  0  0  0  0  0  0  0
    3.0552  -17.0567  -97.3414 C   0  0  0  0  0  0  0  0  0  0  0  0
    1.7639  -17.5767  -97.2127 C   0  0  0  0  0  0  0  0  0  0  0  0
    0.8807  -17.6451  -98.2092 N   0  0  0  0  0  0  0  0  0  0  0  0
    1.3588  -18.0583  -95.9948 N   0  0  0  0  0  0  0  0  0  0  0  0
    2.1999  -18.0334  -94.9182 C   0  0  0  0  0  0  0  0  0  0  0  0
    3.4544  -17.5211  -95.0101 N   0  0  0  0  0  0  0  0  0  0  0  0
    0.4580   -8.8599  -99.1712 O   0  5  0  0  0  0  0  0  0  0  0  0
   -0.7758  -10.6958  -95.3904 O   0  0  0  0  0  0  0  0  0  0  0  0
    4.9960  -12.9360  -97.7030 S   0  0  0  0  0  0  0  0  0  0  0  0
    4.6971  -14.5313  -97.5558 C   0  0  0  0  0  0  0  0  0  0  0  0
   -0.5988  -10.9478  -98.4994 O   0  0  0  0  0  0  0  0  0  0  0  0
    1.3417   -9.8593  -94.3420 O   0  5  0  0  0  0  0  0  0  0  0  0
    3.9138  -15.0701  -98.5590 N   0  0  0  0  0  0  0  0  0  0  0  0
    0.9366   -9.5427  -96.7928 O   0  0  0  0  0  0  0  0  0  0  0  0
    1.3314  -11.8856  -95.7921 O   0  0  0  0  0  0  0  0  0  0  0  0
    3.5917  -14.0743  -99.4479 C   0  0  1  0  0  0  0  0  0  0  0  0
    4.1543  -12.8490  -99.0575 C   0  0  2  0  0  0  0  0  0  0  0  0
    4.1615  -11.4507  -99.6244 C   0  0  0  0  0  0  0  0  0  0  0  0
    2.7368  -10.9179  -99.8104 C   0  0  0  0  0  0  0  0  0  0  0  0
    2.1478  -10.6877  -98.5364 O   0  0  0  0  0  0  0  0  0  0  0  0
  1 11  1  0  0  0  0
  3 13  1  6  0  0  0
  3 17  2  0  0  0  0
  3 20  1  0  0  0  0
  3 26  1  0  0  0  0
  4 14  1  1  0  0  0
  4 18  1  0  0  0  0
  4 21  2  0  0  0  0
  4 20  1  0  0  0  0
  5 19  1  0  0  0  0
  5  7  1  0  0  0  0
  6  7  2  0  0  0  0
  6 12  1  0  0  0  0
  7  8  1  0  0  0  0
  8  9  1  0  0  0  0
  8 10  2  0  0  0  0
 10 11  1  0  0  0  0
 11 12  2  0  0  0  0
 15 23  1  0  0  0  0
 15 16  1  0  0  0  0
 16 19  1  0  0  0  0
 19 22  1  0  0  0  0
 22  2  1  6  0  0  0
 22 23  1  0  0  0  0
 23 24  1  6  0  0  0
 24 25  1  0  0  0  0
 25 26  1  0  0  0  0
M  CHG  2  13  -1  18  -1
M  END
>  <CHROM.1>
160.66648137,48.89096668,-60.38039453,-71.52698575,-123.51762478,69.38110505
178.33541477,-47.26258454,2.17409766,-13.24950013,-97.34285593,1.18521960
-0.90236994,2.69027562

>  <Name>
ligand

>  <RI>
0

>  <Rbt.Current_Directory>
/home/itssahil/PROJECTS/Mol_Feturizer/New_Systems/rnas/2CKY

>  <Rbt.Executable>
rbdock ($Id: //depot/dev/client3/rdock/2013.1/src/exe/rbdock.cxx#4 $)

>  <Rbt.Library>
libRbt.so (2013.1, Build901 2013/11/27)

>  <Rbt.Parameter_File>
/export/apps/rDock/src/rDock_2013.1_src/data/scripts/dock_solv.prm

>  <Rbt.Receptor>
prm/pocket_docking_6.prm

>  <SCORE>
-16.7455

>  <SCORE.INTER>
-9.7345

>  <SCORE.INTER.CONST>
1

>  <SCORE.INTER.POLAR>
0

>  <SCORE.INTER.ROT>
8

>  <SCORE.INTER.SOLV>
7.63785

>  <SCORE.INTER.VDW>
-17.9689

>  <SCORE.INTER.norm>
-0.374404

>  <SCORE.INTRA>
-7.01098

>  <SCORE.INTRA.DIHEDRAL>
-10.2215

>  <SCORE.INTRA.DIHEDRAL.0>
16.4846

>  <SCORE.INTRA.POLAR>
0

>  <SCORE.INTRA.POLAR.0>
0

>  <SCORE.INTRA.REPUL>
0

>  <SCORE.INTRA.REPUL.0>
0

>  <SCORE.INTRA.SOLV>
-0.335552

>  <SCORE.INTRA.SOLV.lig_0>
-82.6983

>  <SCORE.INTRA.VDW>
-1.73245

>  <SCORE.INTRA.VDW.0>
-2.11466

>  <SCORE.INTRA.norm>
-0.269653

>  <SCORE.RESTR>
0

>  <SCORE.RESTR.CAVITY>
0

>  <SCORE.RESTR.norm>
0

>  <SCORE.SYSTEM>
0

>  <SCORE.SYSTEM.CONST>
0

>  <SCORE.SYSTEM.DIHEDRAL>
0

>  <SCORE.SYSTEM.SOLV>
0

>  <SCORE.SYSTEM.norm>
0

>  <SCORE.heavy>
26

>  <SCORE.norm>
-0.644057

>  <RMSD>
6.969

$$$$
ligand
 OpenBabel11021811423D
libRbt.so/2013.1/901 2013/11/27
 26 27  0  0  0  0  0  0  0  0999 V2000
    4.1113  -11.7064  -99.1634 C   0  0  0  0  0  0  0  0  0  0  0  0
    2.4165  -16.8453  -97.9842 C   0  0  0  0  0  0  0  0  0  0  0  0
   -1.8433  -15.1184  -96.2800 P   0  0  2  0  0  0  0  0  0  0  0  0
   -2.7799  -13.9038  -98.5861 P   0  0  2  0  0  0  0  0  0  0  0  0
    4.6415  -16.3253  -95.8092 C   0  0  0  0  0  0  0  0  0  0  0  0
    5.0525  -15.0746  -97.9134 C   0  0  0  0  0  0  0  0  0  0  0  0
    4.4953  -15.0822  -96.6412 C   0  0  0  0  0  0  0  0  0  0  0  0
    3.7795  -13.9609  -96.2116 C   0  0  0  0  0  0  0  0  0  0  0  0
    3.1910  -13.8588  -95.0195 N   0  0  0  0  0  0  0  0  0  0  0  0
    3.6662  -12.8823  -97.0502 N   0  0  0  0  0  0  0  0  0  0  0  0
    4.2422  -12.8964  -98.2892 C   0  0  0  0  0  0  0  0  0  0  0  0
    4.9310  -13.9773  -98.7387 N   0  0  0  0  0  0  0  0  0  0  0  0
   -2.8583  -15.5142  -95.2260 O   0  5  0  0  0  0  0  0  0  0  0  0
   -3.5043  -12.9052  -97.7117 O   0  0  0  0  0  0  0  0  0  0  0  0
    1.6440  -18.4941  -94.5132 S   0  0  0  0  0  0  0  0  0  0  0  0
    3.0718  -17.7093  -94.4730 C   0  0  0  0  0  0  0  0  0  0  0  0
   -1.2926  -13.7594  -95.8559 O   0  0  0  0  0  0  0  0  0  0  0  0
   -3.6014  -14.2887  -99.7996 O   0  5  0  0  0  0  0  0  0  0  0  0
    3.4337  -17.1014  -95.6603 N   0  0  0  0  0  0  0  0  0  0  0  0
   -2.5780  -15.2226  -97.7137 O   0  0  0  0  0  0  0  0  0  0  0  0
   -1.4583  -13.2944  -99.0077 O   0  0  0  0  0  0  0  0  0  0  0  0
    2.4477  -17.3281  -96.5886 C   0  0  1  0  0  0  0  0  0  0  0  0
    1.4053  -18.0918  -96.0402 C   0  0  2  0  0  0  0  0  0  0  0  0
    0.0899  -18.6239  -96.5533 C   0  0  0  0  0  0  0  0  0  0  0  0
   -1.0785  -17.7316  -96.1211 C   0  0  0  0  0  0  0  0  0  0  0  0
   -0.8298  -16.3936  -96.5342 O   0  0  0  0  0  0  0  0  0  0  0  0
  1 11  1  0  0  0  0
  3 13  1  1  0  0  0
  3 17  2  0  0  0  0
  3 20  1  0  0  0  0
  3 26  1  0  0  0  0
  4 14  1  1  0  0  0
  4 18  1  0  0  0  0
  4 21  2  0  0  0  0
  4 20  1  0  0  0  0
  5 19  1  0  0  0  0
  5  7  1  0  0  0  0
  6  7  2  0  0  0  0
  6 12  1  0  0  0  0
  7  8  1  0  0  0  0
  8  9  1  0  0  0  0
  8 10  2  0  0  0  0
 10 11  1  0  0  0  0
 11 12  2  0  0  0  0
 15 23  1  0  0  0  0
 15 16  1  0  0  0  0
 16 19  1  0  0  0  0
 19 22  1  0  0  0  0
 22  2  1  1  0  0  0
 22 23  1  0  0  0  0
 23 24  1  1  0  0  0
 24 25  1  0  0  0  0
 25 26  1  0  0  0  0
M  CHG  2  13  -1  18  -1
M  END
>  <CHROM.1>
116.13177736,-140.22774305,-107.05210010,-54.81455408,80.55282809,54.80895627
179.43147996,15.63684733,0.73719842,-15.33708037,-96.87833903,-0.22270734
-0.05534238,-0.57461397

>  <Name>
ligand

>  <RI>
0

>  <Rbt.Current_Directory>
/home/itssahil/PROJECTS/Mol_Feturizer/New_Systems/rnas/2CKY

>  <Rbt.Executable>
rbdock ($Id: //depot/dev/client3/rdock/2013.1/src/exe/rbdock.cxx#4 $)

>  <Rbt.Library>
libRbt.so (2013.1, Build901 2013/11/27)

>  <Rbt.Parameter_File>
/export/apps/rDock/src/rDock_2013.1_src/data/scripts/dock_solv.prm

>  <Rbt.Receptor>
prm/pocket_docking_8.prm

>  <SCORE>
-15.7114

>  <SCORE.INTER>
-11.0912

>  <SCORE.INTER.CONST>
1

>  <SCORE.INTER.POLAR>
0

>  <SCORE.INTER.ROT>
8

>  <SCORE.INTER.SOLV>
13.5577

>  <SCORE.INTER.VDW>
-20.8467

>  <SCORE.INTER.norm>
-0.426586

>  <SCORE.INTRA>
-4.62021

>  <SCORE.INTRA.DIHEDRAL>
-7.26394

>  <SCORE.INTRA.DIHEDRAL.0>
16.4846

>  <SCORE.INTRA.POLAR>
0

>  <SCORE.INTRA.POLAR.0>
0

>  <SCORE.INTRA.REPUL>
0

>  <SCORE.INTRA.REPUL.0>
0

>  <SCORE.INTRA.SOLV>
0.645651

>  <SCORE.INTRA.SOLV.lig_0>
-82.6983

>  <SCORE.INTRA.VDW>
-1.31107

>  <SCORE.INTRA.VDW.0>
-2.11466

>  <SCORE.INTRA.norm>
-0.1777

>  <SCORE.RESTR>
0

>  <SCORE.RESTR.CAVITY>
0

>  <SCORE.RESTR.norm>
0

>  <SCORE.SYSTEM>
0

>  <SCORE.SYSTEM.CONST>
0

>  <SCORE.SYSTEM.DIHEDRAL>
0

>  <SCORE.SYSTEM.SOLV>
0

>  <SCORE.SYSTEM.norm>
0

>  <SCORE.heavy>
26

>  <SCORE.norm>
-0.604286

>  <RMSD>
6.969

$$$$
ligand
 OpenBabel11021811423D
libRbt.so/2013.1/901 2013/11/27
 26 27  0  0  0  0  0  0  0  0999 V2000
    3.4717  -16.9951  -95.2891 C   0  0  0  0  0  0  0  0  0  0  0  0
   -0.8965  -15.6441  -99.6106 C   0  0  0  0  0  0  0  0  0  0  0  0
   -2.2874  -12.5071  -97.1597 P   0  0  2  0  0  0  0  0  0  0  0  0
   -0.2783  -10.6940  -97.7488 P   0  0  2  0  0  0  0  0  0  0  0  0
   -0.1477  -18.7009  -99.3946 C   0  0  0  0  0  0  0  0  0  0  0  0
    0.5642  -18.5220  -97.0237 C   0  0  0  0  0  0  0  0  0  0  0  0
    0.8189  -18.2112  -98.3532 C   0  0  0  0  0  0  0  0  0  0  0  0
    1.9845  -17.5076  -98.6701 C   0  0  0  0  0  0  0  0  0  0  0  0
    2.3400  -17.1654  -99.9088 N   0  0  0  0  0  0  0  0  0  0  0  0
    2.8293  -17.1295  -97.6588 N   0  0  0  0  0  0  0  0  0  0  0  0
    2.5422  -17.4327  -96.3578 C   0  0  0  0  0  0  0  0  0  0  0  0
    1.4247  -18.1277  -96.0216 N   0  0  0  0  0  0  0  0  0  0  0  0
   -3.4491  -11.6229  -96.7513 O   0  5  0  0  0  0  0  0  0  0  0  0
    0.7672  -11.5402  -97.0578 O   0  0  0  0  0  0  0  0  0  0  0  0
   -3.9832  -17.9849  -99.0141 S   0  0  0  0  0  0  0  0  0  0  0  0
   -2.6089  -18.8561  -99.1059 C   0  0  0  0  0  0  0  0  0  0  0  0
   -1.5951  -12.9296  -95.8666 O   0  0  0  0  0  0  0  0  0  0  0  0
   -0.9228   -9.7076  -96.7963 O   0  5  0  0  0  0  0  0  0  0  0  0
   -1.4642  -18.1132  -99.3248 N   0  0  0  0  0  0  0  0  0  0  0  0
   -1.4218  -11.6864  -98.2475 O   0  0  0  0  0  0  0  0  0  0  0  0
    0.3851   -9.9677  -98.9013 O   0  0  0  0  0  0  0  0  0  0  0  0
   -1.8094  -16.7865  -99.4027 C   0  0  1  0  0  0  0  0  0  0  0  0
   -3.1927  -16.6151  -99.2362 C   0  0  2  0  0  0  0  0  0  0  0  0
   -4.1237  -15.4281  -99.2079 C   0  0  0  0  0  0  0  0  0  0  0  0
   -3.8872  -14.5642  -97.9645 C   0  0  0  0  0  0  0  0  0  0  0  0
   -2.8404  -13.6372  -98.2248 O   0  0  0  0  0  0  0  0  0  0  0  0
  1 11  1  0  0  0  0
  3 13  1  1  0  0  0
  3 17  2  0  0  0  0
  3 20  1  0  0  0  0
  3 26  1  0  0  0  0
  4 14  1  1  0  0  0
  4 18  1  0  0  0  0
  4 21  2  0  0  0  0
  4 20  1  0  0  0  0
  5 19  1  0  0  0  0
  5  7  1  0  0  0  0
  6  7  2  0  0  0  0
  6 12  1  0  0  0  0
  7  8  1  0  0  0  0
  8  9  1  0  0  0  0
  8 10  2  0  0  0  0
 10 11  1  0  0  0  0
 11 12  2  0  0  0  0
 15 23  1  0  0  0  0
 15 16  1  0  0  0  0
 16 19  1  0  0  0  0
 19 22  1  0  0  0  0
 22  2  1  1  0  0  0
 22 23  1  0  0  0  0
 23 24  1  1  0  0  0
 24 25  1  0  0  0  0
 25 26  1  0  0  0  0
M  CHG  2  13  -1  18  -1
M  END
>  <CHROM.1>
87.05786775,-119.01441456,66.32667183,64.10636765,111.22702567,85.70803019
178.98466593,-57.61268222,-0.90064174,-14.92592426,-97.97684671,-1.39164541
-0.26310147,0.16988787

>  <Name>
ligand

>  <RI>
0

>  <Rbt.Current_Directory>
/home/itssahil/PROJECTS/Mol_Feturizer/New_Systems/rnas/2CKY

>  <Rbt.Executable>
rbdock ($Id: //depot/dev/client3/rdock/2013.1/src/exe/rbdock.cxx#4 $)

>  <Rbt.Library>
libRbt.so (2013.1, Build901 2013/11/27)

>  <Rbt.Parameter_File>
/export/apps/rDock/src/rDock_2013.1_src/data/scripts/dock_solv.prm

>  <Rbt.Receptor>
prm/pocket_docking_6.prm

>  <SCORE>
-16.3377

>  <SCORE.INTER>
-10.8262

>  <SCORE.INTER.CONST>
1

>  <SCORE.INTER.POLAR>
0

>  <SCORE.INTER.ROT>
8

>  <SCORE.INTER.SOLV>
13.7794

>  <SCORE.INTER.VDW>
-20.7439

>  <SCORE.INTER.norm>
-0.416392

>  <SCORE.INTRA>
-5.51152

>  <SCORE.INTRA.DIHEDRAL>
-8.75348

>  <SCORE.INTRA.DIHEDRAL.0>
16.4846

>  <SCORE.INTRA.POLAR>
0

>  <SCORE.INTRA.POLAR.0>
0

>  <SCORE.INTRA.REPUL>
0

>  <SCORE.INTRA.REPUL.0>
0

>  <SCORE.INTRA.SOLV>
1.87454

>  <SCORE.INTRA.SOLV.lig_0>
-82.6983

>  <SCORE.INTRA.VDW>
-2.07205

>  <SCORE.INTRA.VDW.0>
-2.11466

>  <SCORE.INTRA.norm>
-0.211981

>  <SCORE.RESTR>
0

>  <SCORE.RESTR.CAVITY>
0

>  <SCORE.RESTR.norm>
0

>  <SCORE.SYSTEM>
0

>  <SCORE.SYSTEM.CONST>
0

>  <SCORE.SYSTEM.DIHEDRAL>
0

>  <SCORE.SYSTEM.SOLV>
0

>  <SCORE.SYSTEM.norm>
0

>  <SCORE.heavy>
26

>  <SCORE.norm>
-0.628373

>  <RMSD>
7.032

$$$$
ligand
 OpenBabel11021811423D
libRbt.so/2013.1/901 2013/11/27
 26 27  0  0  0  0  0  0  0  0999 V2000
    2.3281  -19.7221 -100.8059 C   0  0  0  0  0  0  0  0  0  0  0  0
   -2.4703  -17.4823  -98.8591 C   0  0  0  0  0  0  0  0  0  0  0  0
   -1.0677  -11.7885  -97.7375 P   0  0  2  0  0  0  0  0  0  0  0  0
   -0.8932  -11.5146  -94.9870 P   0  0  2  0  0  0  0  0  0  0  0  0
   -1.0161  -18.5915  -96.2889 C   0  0  0  0  0  0  0  0  0  0  0  0
   -0.2912  -20.0141  -98.1892 C   0  0  0  0  0  0  0  0  0  0  0  0
   -0.0986  -18.8542  -97.4499 C   0  0  0  0  0  0  0  0  0  0  0  0
    0.8988  -17.9589  -97.8472 C   0  0  0  0  0  0  0  0  0  0  0  0
    1.1664  -16.8105  -97.2248 N   0  0  0  0  0  0  0  0  0  0  0  0
    1.6679  -18.2619  -98.9408 N   0  0  0  0  0  0  0  0  0  0  0  0
    1.4678  -19.4207  -99.6370 C   0  0  0  0  0  0  0  0  0  0  0  0
    0.4969  -20.3020  -99.2828 N   0  0  0  0  0  0  0  0  0  0  0  0
   -0.1367  -12.1926  -98.8636 O   0  5  0  0  0  0  0  0  0  0  0  0
   -0.6985  -10.0154  -95.0168 O   0  0  0  0  0  0  0  0  0  0  0  0
   -2.8809  -15.1931  -95.7041 S   0  0  0  0  0  0  0  0  0  0  0  0
   -1.9964  -16.5143  -95.3459 C   0  0  0  0  0  0  0  0  0  0  0  0
   -1.4904  -10.3504  -98.0261 O   0  0  0  0  0  0  0  0  0  0  0  0
   -0.1216  -12.1594  -93.8536 O   0  5  0  0  0  0  0  0  0  0  0  0
   -1.8056  -17.3882  -96.3995 N   0  0  0  0  0  0  0  0  0  0  0  0
   -0.2972  -12.0862  -96.3505 O   0  0  0  0  0  0  0  0  0  0  0  0
   -2.3755  -11.7980  -94.8527 O   0  0  0  0  0  0  0  0  0  0  0  0
   -2.4343  -16.8817  -97.5102 C   0  0  1  0  0  0  0  0  0  0  0  0
   -3.0578  -15.6575  -97.2219 C   0  0  2  0  0  0  0  0  0  0  0  0
   -3.8594  -14.6565  -98.0169 C   0  0  0  0  0  0  0  0  0  0  0  0
   -2.9624  -13.5548  -98.5912 C   0  0  0  0  0  0  0  0  0  0  0  0
   -2.1971  -12.9734  -97.5429 O   0  0  0  0  0  0  0  0  0  0  0  0
  1 11  1  0  0  0  0
  3 13  1  6  0  0  0
  3 17  2  0  0  0  0
  3 20  1  0  0  0  0
  3 26  1  0  0  0  0
  4 14  1  1  0  0  0
  4 18  1  0  0  0  0
  4 21  2  0  0  0  0
  4 20  1  0  0  0  0
  5 19  1  0  0  0  0
  5  7  1  0  0  0  0
  6  7  2  0  0  0  0
  6 12  1  0  0  0  0
  7  8  1  0  0  0  0
  8  9  1  0  0  0  0
  8 10  2  0  0  0  0
 10 11  1  0  0  0  0
 11 12  2  0  0  0  0
 15 23  1  0  0  0  0
 15 16  1  0  0  0  0
 16 19  1  0  0  0  0
 19 22  1  0  0  0  0
 22  2  1  6  0  0  0
 22 23  1  0  0  0  0
 23 24  1  6  0  0  0
 24 25  1  0  0  0  0
 25 26  1  0  0  0  0
M  CHG  2  13  -1  18  -1
M  END
>  <CHROM.1>
168.39014840,-136.80039140,-118.44252198,-70.32240392,86.63137106,-53.39031018
177.74506053,-49.05245471,-1.02107446,-14.95261922,-97.15107170,-1.30672997
0.68104986,0.16018011

>  <Name>
ligand

>  <RI>
0

>  <Rbt.Current_Directory>
/home/itssahil/PROJECTS/Mol_Feturizer/New_Systems/rnas/2CKY

>  <Rbt.Executable>
rbdock ($Id: //depot/dev/client3/rdock/2013.1/src/exe/rbdock.cxx#4 $)

>  <Rbt.Library>
libRbt.so (2013.1, Build901 2013/11/27)

>  <Rbt.Parameter_File>
/export/apps/rDock/src/rDock_2013.1_src/data/scripts/dock_solv.prm

>  <Rbt.Receptor>
prm/pocket_docking_8.prm

>  <SCORE>
-20.5165

>  <SCORE.INTER>
-13.7168

>  <SCORE.INTER.CONST>
1

>  <SCORE.INTER.POLAR>
0

>  <SCORE.INTER.ROT>
8

>  <SCORE.INTER.SOLV>
15.1287

>  <SCORE.INTER.VDW>
-23.1208

>  <SCORE.INTER.norm>
-0.52757

>  <SCORE.INTRA>
-6.79972

>  <SCORE.INTRA.DIHEDRAL>
-10.427

>  <SCORE.INTRA.DIHEDRAL.0>
16.4846

>  <SCORE.INTRA.POLAR>
0

>  <SCORE.INTRA.POLAR.0>
0

>  <SCORE.INTRA.REPUL>
0

>  <SCORE.INTRA.REPUL.0>
0

>  <SCORE.INTRA.SOLV>
1.86357

>  <SCORE.INTRA.SOLV.lig_0>
-82.6983

>  <SCORE.INTRA.VDW>
-2.51798

>  <SCORE.INTRA.VDW.0>
-2.11466

>  <SCORE.INTRA.norm>
-0.261528

>  <SCORE.RESTR>
0

>  <SCORE.RESTR.CAVITY>
0

>  <SCORE.RESTR.norm>
0

>  <SCORE.SYSTEM>
0

>  <SCORE.SYSTEM.CONST>
0

>  <SCORE.SYSTEM.DIHEDRAL>
0

>  <SCORE.SYSTEM.SOLV>
0

>  <SCORE.SYSTEM.norm>
0

>  <SCORE.heavy>
26

>  <SCORE.norm>
-0.789097

>  <RMSD>
7.250

$$$$
ligand
 OpenBabel11021811423D
libRbt.so/2013.1/901 2013/11/27
 26 27  0  0  0  0  0  0  0  0999 V2000
    3.9963  -15.1943  -94.9976 C   0  0  0  0  0  0  0  0  0  0  0  0
   -2.4693  -15.3419  -95.3021 C   0  0  0  0  0  0  0  0  0  0  0  0
   -3.7385  -18.8419  -99.2396 P   0  0  2  0  0  0  0  0  0  0  0  0
   -2.5325  -20.7133  -97.5921 P   0  0  2  0  0  0  0  0  0  0  0  0
   -1.0894  -12.5603  -94.7453 C   0  0  0  0  0  0  0  0  0  0  0  0
    0.4155  -14.4859  -94.3121 C   0  0  0  0  0  0  0  0  0  0  0  0
    0.2693  -13.1991  -94.8137 C   0  0  0  0  0  0  0  0  0  0  0  0
    1.3718  -12.5770  -95.4069 C   0  0  0  0  0  0  0  0  0  0  0  0
    1.3479  -11.3521  -95.9331 N   0  0  0  0  0  0  0  0  0  0  0  0
    2.5666  -13.2473  -95.4575 N   0  0  0  0  0  0  0  0  0  0  0  0
    2.6850  -14.5055  -94.9378 C   0  0  0  0  0  0  0  0  0  0  0  0
    1.6275  -15.1401  -94.3688 N   0  0  0  0  0  0  0  0  0  0  0  0
   -4.9673  -19.7244  -99.3355 O   0  5  0  0  0  0  0  0  0  0  0  0
   -3.7823  -21.5087  -97.2890 O   0  0  0  0  0  0  0  0  0  0  0  0
   -3.2833  -12.6115  -97.9938 S   0  0  0  0  0  0  0  0  0  0  0  0
   -2.3093  -12.0063  -96.8358 C   0  0  0  0  0  0  0  0  0  0  0  0
   -2.9670  -19.0386 -100.5419 O   0  0  0  0  0  0  0  0  0  0  0  0
   -1.5801  -20.6918  -96.4140 O   0  5  0  0  0  0  0  0  0  0  0  0
   -1.9743  -12.8981  -95.8345 N   0  0  0  0  0  0  0  0  0  0  0  0
   -2.9928  -19.2101  -97.8560 O   0  0  0  0  0  0  0  0  0  0  0  0
   -1.8646  -21.3239  -98.8074 O   0  0  0  0  0  0  0  0  0  0  0  0
   -2.5733  -14.1044  -96.1018 C   0  0  1  0  0  0  0  0  0  0  0  0
   -3.3206  -14.0440  -97.2885 C   0  0  2  0  0  0  0  0  0  0  0  0
   -4.1558  -15.0254  -98.0733 C   0  0  0  0  0  0  0  0  0  0  0  0
   -3.3349  -16.2529  -98.4825 C   0  0  0  0  0  0  0  0  0  0  0  0
   -4.2123  -17.3368  -98.7626 O   0  0  0  0  0  0  0  0  0  0  0  0
  1 11  1  0  0  0  0
  3 13  1  6  0  0  0
  3 17  2  0  0  0  0
  3 20  1  0  0  0  0
  3 26  1  0  0  0  0
  4 14  1  1  0  0  0
  4 18  1  0  0  0  0
  4 21  2  0  0  0  0
  4 20  1  0  0  0  0
  5 19  1  0  0  0  0
  5  7  1  0  0  0  0
  6  7  2  0  0  0  0
  6 12  1  0  0  0  0
  7  8  1  0  0  0  0
  8  9  1  0  0  0  0
  8 10  2  0  0  0  0
 10 11  1  0  0  0  0
 11 12  2  0  0  0  0
 15 23  1  0  0  0  0
 15 16  1  0  0  0  0
 16 19  1  0  0  0  0
 19 22  1  0  0  0  0
 22  2  1  6  0  0  0
 22 23  1  0  0  0  0
 23 24  1  6  0  0  0
 24 25  1  0  0  0  0
 25 26  1  0  0  0  0
M  CHG  2  13  -1  18  -1
M  END
>  <CHROM.1>
57.32323083,-107.71085573,-84.37182877,-73.81508679,121.64685660,158.71890128
179.91148270,175.97807134,-1.78442158,-16.26315417,-97.06405037,-1.02651875
0.51631123,-3.01690699

>  <Name>
ligand

>  <RI>
0

>  <Rbt.Current_Directory>
/home/itssahil/PROJECTS/Mol_Feturizer/New_Systems/rnas/2CKY

>  <Rbt.Executable>
rbdock ($Id: //depot/dev/client3/rdock/2013.1/src/exe/rbdock.cxx#4 $)

>  <Rbt.Library>
libRbt.so (2013.1, Build901 2013/11/27)

>  <Rbt.Parameter_File>
/export/apps/rDock/src/rDock_2013.1_src/data/scripts/dock_solv.prm

>  <Rbt.Receptor>
prm/pocket_docking_8.prm

>  <SCORE>
-20.8988

>  <SCORE.INTER>
-14.8331

>  <SCORE.INTER.CONST>
1

>  <SCORE.INTER.POLAR>
0

>  <SCORE.INTER.ROT>
8

>  <SCORE.INTER.SOLV>
18.2415

>  <SCORE.INTER.VDW>
-24.9026

>  <SCORE.INTER.norm>
-0.570504

>  <SCORE.INTRA>
-6.06571

>  <SCORE.INTRA.DIHEDRAL>
-10.1092

>  <SCORE.INTRA.DIHEDRAL.0>
16.4846

>  <SCORE.INTRA.POLAR>
0

>  <SCORE.INTRA.POLAR.0>
0

>  <SCORE.INTRA.REPUL>
0

>  <SCORE.INTRA.REPUL.0>
0

>  <SCORE.INTRA.SOLV>
0.552573

>  <SCORE.INTRA.SOLV.lig_0>
-82.6983

>  <SCORE.INTRA.VDW>
-1.28738

>  <SCORE.INTRA.VDW.0>
-2.11466

>  <SCORE.INTRA.norm>
-0.233297

>  <SCORE.RESTR>
0

>  <SCORE.RESTR.CAVITY>
0

>  <SCORE.RESTR.norm>
0

>  <SCORE.SYSTEM>
0

>  <SCORE.SYSTEM.CONST>
0

>  <SCORE.SYSTEM.DIHEDRAL>
0

>  <SCORE.SYSTEM.SOLV>
0

>  <SCORE.SYSTEM.norm>
0

>  <SCORE.heavy>
26

>  <SCORE.norm>
-0.803801

>  <RMSD>
7.260

$$$$
ligand
 OpenBabel11021811423D
libRbt.so/2013.1/901 2013/11/27
 26 27  0  0  0  0  0  0  0  0999 V2000
    4.1241  -11.4453  -99.4117 C   0  0  0  0  0  0  0  0  0  0  0  0
    1.6699  -14.3376  -94.6086 C   0  0  0  0  0  0  0  0  0  0  0  0
   -1.3549  -16.6748  -97.9151 P   0  0  2  0  0  0  0  0  0  0  0  0
   -3.6600  -15.4259  -98.8080 P   0  0  2  0  0  0  0  0  0  0  0  0
    4.5438  -15.4312  -95.3127 C   0  0  0  0  0  0  0  0  0  0  0  0
    4.5209  -13.0772  -96.0992 C   0  0  0  0  0  0  0  0  0  0  0  0
    4.4032  -14.4236  -96.4189 C   0  0  0  0  0  0  0  0  0  0  0  0
    4.2148  -14.7854  -97.7561 C   0  0  0  0  0  0  0  0  0  0  0  0
    4.1016  -16.0434  -98.1833 N   0  0  0  0  0  0  0  0  0  0  0  0
    4.1324  -13.8010  -98.7066 N   0  0  0  0  0  0  0  0  0  0  0  0
    4.2322  -12.4833  -98.3589 C   0  0  0  0  0  0  0  0  0  0  0  0
    4.4300  -12.1030  -97.0701 N   0  0  0  0  0  0  0  0  0  0  0  0
   -0.4361  -15.9691  -98.8929 O   0  5  0  0  0  0  0  0  0  0  0  0
   -2.8949  -14.8133  -99.9595 O   0  0  0  0  0  0  0  0  0  0  0  0
    1.9045  -18.2500  -94.6369 S   0  0  0  0  0  0  0  0  0  0  0  0
    3.3430  -17.5840  -95.0155 C   0  0  0  0  0  0  0  0  0  0  0  0
   -1.6421  -18.0497  -98.5128 O   0  0  0  0  0  0  0  0  0  0  0  0
   -4.7067  -14.4772  -98.2603 O   0  5  0  0  0  0  0  0  0  0  0  0
    3.3546  -16.2022  -95.0393 N   0  0  0  0  0  0  0  0  0  0  0  0
   -2.6065  -15.6927  -97.6418 O   0  0  0  0  0  0  0  0  0  0  0  0
   -4.3042  -16.7080  -99.2951 O   0  0  0  0  0  0  0  0  0  0  0  0
    2.0998  -15.7464  -94.7180 C   0  0  1  0  0  0  0  0  0  0  0  0
    1.2234  -16.8149  -94.4716 C   0  0  2  0  0  0  0  0  0  0  0  0
   -0.2272  -16.9335  -94.0737 C   0  0  0  0  0  0  0  0  0  0  0  0
   -1.1052  -17.3055  -95.2734 C   0  0  0  0  0  0  0  0  0  0  0  0
   -0.7155  -16.5331  -96.4023 O   0  0  0  0  0  0  0  0  0  0  0  0
  1 11  1  0  0  0  0
  3 13  1  6  0  0  0
  3 17  2  0  0  0  0
  3 20  1  0  0  0  0
  3 26  1  0  0  0  0
  4 14  1  6  0  0  0
  4 18  1  0  0  0  0
  4 21  2  0  0  0  0
  4 20  1  0  0  0  0
  5 19  1  0  0  0  0
  5  7  1  0  0  0  0
  6  7  2  0  0  0  0
  6 12  1  0  0  0  0
  7  8  1  0  0  0  0
  8  9  1  0  0  0  0
  8 10  2  0  0  0  0
 10 11  1  0  0  0  0
 11 12  2  0  0  0  0
 15 23  1  0  0  0  0
 15 16  1  0  0  0  0
 16 19  1  0  0  0  0
 19 22  1  0  0  0  0
 22  2  1  1  0  0  0
 22 23  1  0  0  0  0
 23 24  1  1  0  0  0
 24 25  1  0  0  0  0
 25 26  1  0  0  0  0
M  CHG  2  13  -1  18  -1
M  END
>  <CHROM.1>
69.29308376,126.55510318,115.58569299,-59.98101879,-77.47081115,-43.59675048
176.84221374,-164.77159827,0.65527345,-15.62236830,-97.04633415,-0.04042962
-0.32759987,-0.80186885

>  <Name>
ligand

>  <RI>
0

>  <Rbt.Current_Directory>
/home/itssahil/PROJECTS/Mol_Feturizer/New_Systems/rnas/2CKY

>  <Rbt.Executable>
rbdock ($Id: //depot/dev/client3/rdock/2013.1/src/exe/rbdock.cxx#4 $)

>  <Rbt.Library>
libRbt.so (2013.1, Build901 2013/11/27)

>  <Rbt.Parameter_File>
/export/apps/rDock/src/rDock_2013.1_src/data/scripts/dock_solv.prm

>  <Rbt.Receptor>
prm/pocket_docking_5.prm

>  <SCORE>
-12.5007

>  <SCORE.INTER>
-6.16497

>  <SCORE.INTER.CONST>
1

>  <SCORE.INTER.POLAR>
0

>  <SCORE.INTER.ROT>
8

>  <SCORE.INTER.SOLV>
15.3158

>  <SCORE.INTER.VDW>
-18.1486

>  <SCORE.INTER.norm>
-0.237114

>  <SCORE.INTRA>
-6.33573

>  <SCORE.INTRA.DIHEDRAL>
-9.72085

>  <SCORE.INTRA.DIHEDRAL.0>
16.4846

>  <SCORE.INTRA.POLAR>
0

>  <SCORE.INTRA.POLAR.0>
0

>  <SCORE.INTRA.REPUL>
0

>  <SCORE.INTRA.REPUL.0>
0

>  <SCORE.INTRA.SOLV>
0.856881

>  <SCORE.INTRA.SOLV.lig_0>
-82.6983

>  <SCORE.INTRA.VDW>
-1.90375

>  <SCORE.INTRA.VDW.0>
-2.11466

>  <SCORE.INTRA.norm>
-0.243682

>  <SCORE.RESTR>
0

>  <SCORE.RESTR.CAVITY>
0

>  <SCORE.RESTR.norm>
0

>  <SCORE.SYSTEM>
0

>  <SCORE.SYSTEM.CONST>
0

>  <SCORE.SYSTEM.DIHEDRAL>
0

>  <SCORE.SYSTEM.SOLV>
0

>  <SCORE.SYSTEM.norm>
0

>  <SCORE.heavy>
26

>  <SCORE.norm>
-0.480796

>  <RMSD>
7.276

$$$$
ligand
 OpenBabel11021811423D
libRbt.so/2013.1/901 2013/11/27
 26 27  0  0  0  0  0  0  0  0999 V2000
    2.7480   -8.3006  -95.1026 C   0  0  0  0  0  0  0  0  0  0  0  0
   -2.5451  -15.2262  -95.4713 C   0  0  0  0  0  0  0  0  0  0  0  0
   -2.1840  -18.0497  -98.4764 P   0  0  2  0  0  0  0  0  0  0  0  0
    0.4557  -18.3189  -99.2701 P   0  0  2  0  0  0  0  0  0  0  0  0
   -1.0036  -12.6086  -94.6209 C   0  0  0  0  0  0  0  0  0  0  0  0
   -0.4313  -10.2089  -94.8940 C   0  0  0  0  0  0  0  0  0  0  0  0
    0.0188  -11.5168  -94.7675 C   0  0  0  0  0  0  0  0  0  0  0  0
    1.3956  -11.7554  -94.7272 C   0  0  0  0  0  0  0  0  0  0  0  0
    1.9433  -12.9639  -94.5958 N   0  0  0  0  0  0  0  0  0  0  0  0
    2.2582  -10.6951  -94.8332 N   0  0  0  0  0  0  0  0  0  0  0  0
    1.7856   -9.4210  -94.9765 C   0  0  0  0  0  0  0  0  0  0  0  0
    0.4535   -9.1577  -95.0042 N   0  0  0  0  0  0  0  0  0  0  0  0
   -1.9271  -18.8418  -97.2096 O   0  5  0  0  0  0  0  0  0  0  0  0
    0.7671  -19.1255  -98.0296 O   0  0  0  0  0  0  0  0  0  0  0  0
   -3.0849  -12.2132  -97.9194 S   0  0  0  0  0  0  0  0  0  0  0  0
   -2.1127  -11.7842  -96.6838 C   0  0  0  0  0  0  0  0  0  0  0  0
   -2.8525  -19.0116  -99.4551 O   0  0  0  0  0  0  0  0  0  0  0  0
    1.6088  -17.4157  -99.6577 O   0  5  0  0  0  0  0  0  0  0  0  0
   -1.8716  -12.7842  -95.7607 N   0  0  0  0  0  0  0  0  0  0  0  0
   -0.7818  -17.3796  -98.9133 O   0  0  0  0  0  0  0  0  0  0  0  0
    0.1315  -19.2825 -100.3936 O   0  0  0  0  0  0  0  0  0  0  0  0
   -2.5398  -13.9171  -96.1552 C   0  0  1  0  0  0  0  0  0  0  0  0
   -3.2408  -13.6977  -97.3514 C   0  0  2  0  0  0  0  0  0  0  0  0
   -4.1122  -14.5439  -98.2466 C   0  0  0  0  0  0  0  0  0  0  0  0
   -3.2891  -15.6078  -98.9808 C   0  0  0  0  0  0  0  0  0  0  0  0
   -2.9115  -16.6287  -98.0654 O   0  0  0  0  0  0  0  0  0  0  0  0
  1 11  1  0  0  0  0
  3 13  1  1  0  0  0
  3 17  2  0  0  0  0
  3 20  1  0  0  0  0
  3 26  1  0  0  0  0
  4 14  1  1  0  0  0
  4 18  1  0  0  0  0
  4 21  2  0  0  0  0
  4 20  1  0  0  0  0
  5 19  1  0  0  0  0
  5  7  1  0  0  0  0
  6  7  2  0  0  0  0
  6 12  1  0  0  0  0
  7  8  1  0  0  0  0
  8  9  1  0  0  0  0
  8 10  2  0  0  0  0
 10 11  1  0  0  0  0
 11 12  2  0  0  0  0
 15 23  1  0  0  0  0
 15 16  1  0  0  0  0
 16 19  1  0  0  0  0
 19 22  1  0  0  0  0
 22  2  1  6  0  0  0
 22 23  1  0  0  0  0
 23 24  1  6  0  0  0
 24 25  1  0  0  0  0
 25 26  1  0  0  0  0
M  CHG  2  13  -1  18  -1
M  END
>  <CHROM.1>
61.48379003,-22.94611292,63.97466980,-60.78129683,109.49503206,73.22767927
171.88993143,178.90652901,-0.92116798,-14.68397576,-97.20735231,-1.37942302
0.13371382,-2.71457573

>  <Name>
ligand

>  <RI>
0

>  <Rbt.Current_Directory>
/home/itssahil/PROJECTS/Mol_Feturizer/New_Systems/rnas/2CKY

>  <Rbt.Executable>
rbdock ($Id: //depot/dev/client3/rdock/2013.1/src/exe/rbdock.cxx#4 $)

>  <Rbt.Library>
libRbt.so (2013.1, Build901 2013/11/27)

>  <Rbt.Parameter_File>
/export/apps/rDock/src/rDock_2013.1_src/data/scripts/dock_solv.prm

>  <Rbt.Receptor>
prm/pocket_docking_7.prm

>  <SCORE>
-15.2485

>  <SCORE.INTER>
-8.99603

>  <SCORE.INTER.CONST>
1

>  <SCORE.INTER.POLAR>
0

>  <SCORE.INTER.ROT>
8

>  <SCORE.INTER.SOLV>
7.14393

>  <SCORE.INTER.VDW>
-17.312

>  <SCORE.INTER.norm>
-0.346001

>  <SCORE.INTRA>
-6.25244

>  <SCORE.INTRA.DIHEDRAL>
-10.7624

>  <SCORE.INTRA.DIHEDRAL.0>
16.4846

>  <SCORE.INTRA.POLAR>
0

>  <SCORE.INTRA.POLAR.0>
0

>  <SCORE.INTRA.REPUL>
0

>  <SCORE.INTRA.REPUL.0>
0

>  <SCORE.INTRA.SOLV>
0.450472

>  <SCORE.INTRA.SOLV.lig_0>
-82.6983

>  <SCORE.INTRA.VDW>
-1.09648

>  <SCORE.INTRA.VDW.0>
-2.11466

>  <SCORE.INTRA.norm>
-0.240478

>  <SCORE.RESTR>
0

>  <SCORE.RESTR.CAVITY>
0

>  <SCORE.RESTR.norm>
0

>  <SCORE.SYSTEM>
0

>  <SCORE.SYSTEM.CONST>
0

>  <SCORE.SYSTEM.DIHEDRAL>
0

>  <SCORE.SYSTEM.SOLV>
0

>  <SCORE.SYSTEM.norm>
0

>  <SCORE.heavy>
26

>  <SCORE.norm>
-0.58648

>  <RMSD>
7.305

$$$$
ligand
 OpenBabel11021811423D
libRbt.so/2013.1/901 2013/11/27
 26 27  0  0  0  0  0  0  0  0999 V2000
    2.6978  -11.3815  -99.8932 C   0  0  0  0  0  0  0  0  0  0  0  0
    0.4336  -14.3797  -93.7159 C   0  0  0  0  0  0  0  0  0  0  0  0
   -0.0436  -18.5054  -97.5044 P   0  0  2  0  0  0  0  0  0  0  0  0
    1.4993  -16.2153  -97.7181 P   0  0  2  0  0  0  0  0  0  0  0  0
   -0.7780  -11.9854  -95.3744 C   0  0  0  0  0  0  0  0  0  0  0  0
   -0.2546  -12.1940  -97.7916 C   0  0  0  0  0  0  0  0  0  0  0  0
    0.1784  -11.8297  -96.5232 C   0  0  0  0  0  0  0  0  0  0  0  0
    1.4580  -11.2859  -96.3776 C   0  0  0  0  0  0  0  0  0  0  0  0
    1.9757  -10.8888  -95.2148 N   0  0  0  0  0  0  0  0  0  0  0  0
    2.2523  -11.1473  -97.4863 N   0  0  0  0  0  0  0  0  0  0  0  0
    1.8059  -11.5330  -98.7189 C   0  0  0  0  0  0  0  0  0  0  0  0
    0.5623  -12.0508  -98.8926 N   0  0  0  0  0  0  0  0  0  0  0  0
    0.1708  -19.9522  -97.1060 O   0  5  0  0  0  0  0  0  0  0  0  0
    0.3754  -15.4253  -97.0861 O   0  0  0  0  0  0  0  0  0  0  0  0
   -2.9051  -15.2729  -95.5647 S   0  0  0  0  0  0  0  0  0  0  0  0
   -2.4921  -13.7204  -95.8394 C   0  0  0  0  0  0  0  0  0  0  0  0
   -0.5749  -18.5291  -98.9352 O   0  0  0  0  0  0  0  0  0  0  0  0
    1.3995  -16.2240  -99.2299 O   0  5  0  0  0  0  0  0  0  0  0  0
   -1.3277  -13.3107  -95.2177 N   0  0  0  0  0  0  0  0  0  0  0  0
    1.3403  -17.7228  -97.2247 O   0  0  0  0  0  0  0  0  0  0  0  0
    2.8144  -15.6083  -97.2734 O   0  0  0  0  0  0  0  0  0  0  0  0
   -0.8100  -14.3693  -94.5128 C   0  0  1  0  0  0  0  0  0  0  0  0
   -1.6176  -15.5092  -94.6497 C   0  0  2  0  0  0  0  0  0  0  0  0
   -1.5548  -16.9275  -94.1389 C   0  0  0  0  0  0  0  0  0  0  0  0
   -0.5379  -17.7592  -94.9281 C   0  0  0  0  0  0  0  0  0  0  0  0
   -0.8899  -17.7535  -96.3061 O   0  0  0  0  0  0  0  0  0  0  0  0
  1 11  1  0  0  0  0
  3 13  1  1  0  0  0
  3 17  2  0  0  0  0
  3 20  1  0  0  0  0
  3 26  1  0  0  0  0
  4 14  1  1  0  0  0
  4 18  1  0  0  0  0
  4 21  2  0  0  0  0
  4 20  1  0  0  0  0
  5 19  1  0  0  0  0
  5  7  1  0  0  0  0
  6  7  2  0  0  0  0
  6 12  1  0  0  0  0
  7  8  1  0  0  0  0
  8  9  1  0  0  0  0
  8 10  2  0  0  0  0
 10 11  1  0  0  0  0
 11 12  2  0  0  0  0
 15 23  1  0  0  0  0
 15 16  1  0  0  0  0
 16 19  1  0  0  0  0
 19 22  1  0  0  0  0
 22  2  1  6  0  0  0
 22 23  1  0  0  0  0
 23 24  1  6  0  0  0
 24 25  1  0  0  0  0
 25 26  1  0  0  0  0
M  CHG  2  13  -1  18  -1
M  END
>  <CHROM.1>
172.14652656,-89.55995900,54.95421927,57.02634527,102.45744486,-58.20102585
178.86181382,52.16211338,0.14496457,-15.05439341,-96.73418322,-1.23351187
-0.82004159,-2.95093376

>  <Name>
ligand

>  <RI>
0

>  <Rbt.Current_Directory>
/home/itssahil/PROJECTS/Mol_Feturizer/New_Systems/rnas/2CKY

>  <Rbt.Executable>
rbdock ($Id: //depot/dev/client3/rdock/2013.1/src/exe/rbdock.cxx#4 $)

>  <Rbt.Library>
libRbt.so (2013.1, Build901 2013/11/27)

>  <Rbt.Parameter_File>
/export/apps/rDock/src/rDock_2013.1_src/data/scripts/dock_solv.prm

>  <Rbt.Receptor>
prm/pocket_docking_6.prm

>  <SCORE>
-13.818

>  <SCORE.INTER>
-3.55739

>  <SCORE.INTER.CONST>
1

>  <SCORE.INTER.POLAR>
0

>  <SCORE.INTER.ROT>
8

>  <SCORE.INTER.SOLV>
6.02875

>  <SCORE.INTER.VDW>
-13.3145

>  <SCORE.INTER.norm>
-0.136823

>  <SCORE.INTRA>
-10.2606

>  <SCORE.INTRA.DIHEDRAL>
-11.6566

>  <SCORE.INTRA.DIHEDRAL.0>
16.4846

>  <SCORE.INTRA.POLAR>
0

>  <SCORE.INTRA.POLAR.0>
0

>  <SCORE.INTRA.REPUL>
0

>  <SCORE.INTRA.REPUL.0>
0

>  <SCORE.INTRA.SOLV>
-0.155343

>  <SCORE.INTRA.SOLV.lig_0>
-82.6983

>  <SCORE.INTRA.VDW>
-4.35462

>  <SCORE.INTRA.VDW.0>
-2.11466

>  <SCORE.INTRA.norm>
-0.394637

>  <SCORE.RESTR>
0

>  <SCORE.RESTR.CAVITY>
0

>  <SCORE.RESTR.norm>
0

>  <SCORE.SYSTEM>
0

>  <SCORE.SYSTEM.CONST>
0

>  <SCORE.SYSTEM.DIHEDRAL>
0

>  <SCORE.SYSTEM.SOLV>
0

>  <SCORE.SYSTEM.norm>
0

>  <SCORE.heavy>
26

>  <SCORE.norm>
-0.53146

>  <RMSD>
7.323

$$$$
ligand
 OpenBabel11021811423D
libRbt.so/2013.1/901 2013/11/27
 26 27  0  0  0  0  0  0  0  0999 V2000
   -3.4874  -18.1193  -99.5256 C   0  0  0  0  0  0  0  0  0  0  0  0
    0.1397  -12.8449  -94.7394 C   0  0  0  0  0  0  0  0  0  0  0  0
    3.2771  -11.8376  -99.1239 P   0  0  2  0  0  0  0  0  0  0  0  0
    4.7654  -13.4301  -97.4153 P   0  0  2  0  0  0  0  0  0  0  0  0
   -2.6614  -13.9593  -95.6685 C   0  0  0  0  0  0  0  0  0  0  0  0
   -3.9049  -15.0059  -97.5444 C   0  0  0  0  0  0  0  0  0  0  0  0
   -2.8497  -15.0862  -96.6449 C   0  0  0  0  0  0  0  0  0  0  0  0
   -1.9803  -16.1783  -96.7209 C   0  0  0  0  0  0  0  0  0  0  0  0
   -0.9281  -16.3556  -95.9214 N   0  0  0  0  0  0  0  0  0  0  0  0
   -2.2068  -17.1447  -97.6665 N   0  0  0  0  0  0  0  0  0  0  0  0
   -3.2652  -17.0481  -98.5253 C   0  0  0  0  0  0  0  0  0  0  0  0
   -4.1176  -15.9915  -98.4843 N   0  0  0  0  0  0  0  0  0  0  0  0
    2.4416  -12.0524 -100.3705 O   0  5  0  0  0  0  0  0  0  0  0  0
    6.0792  -13.0748  -98.0741 O   0  0  0  0  0  0  0  0  0  0  0  0
   -1.5260  -10.7396  -97.5954 S   0  0  0  0  0  0  0  0  0  0  0  0
   -2.4677  -12.0062  -97.1894 C   0  0  0  0  0  0  0  0  0  0  0  0
    4.4325  -10.9282  -99.5338 O   0  0  0  0  0  0  0  0  0  0  0  0
    4.7498  -14.8653  -96.9299 O   0  5  0  0  0  0  0  0  0  0  0  0
   -1.9554  -12.8144  -96.1921 N   0  0  0  0  0  0  0  0  0  0  0  0
    3.6359  -13.2961  -98.5322 O   0  0  0  0  0  0  0  0  0  0  0  0
    4.5391  -12.4741  -96.2618 O   0  0  0  0  0  0  0  0  0  0  0  0
   -0.7440  -12.3057  -95.7930 C   0  0  1  0  0  0  0  0  0  0  0  0
   -0.4220  -11.1458  -96.5151 C   0  0  2  0  0  0  0  0  0  0  0  0
    0.7304  -10.1719  -96.5087 C   0  0  0  0  0  0  0  0  0  0  0  0
    1.5053  -10.2173  -97.8300 C   0  0  0  0  0  0  0  0  0  0  0  0
    2.2718  -11.4140  -97.8880 O   0  0  0  0  0  0  0  0  0  0  0  0
  1 11  1  0  0  0  0
  3 13  1  6  0  0  0
  3 17  2  0  0  0  0
  3 20  1  0  0  0  0
  3 26  1  0  0  0  0
  4 14  1  6  0  0  0
  4 18  1  0  0  0  0
  4 21  2  0  0  0  0
  4 20  1  0  0  0  0
  5 19  1  0  0  0  0
  5  7  1  0  0  0  0
  6  7  2  0  0  0  0
  6 12  1  0  0  0  0
  7  8  1  0  0  0  0
  8  9  1  0  0  0  0
  8 10  2  0  0  0  0
 10 11  1  0  0  0  0
 11 12  2  0  0  0  0
 15 23  1  0  0  0  0
 15 16  1  0  0  0  0
 16 19  1  0  0  0  0
 19 22  1  0  0  0  0
 22  2  1  1  0  0  0
 22 23  1  0  0  0  0
 23 24  1  1  0  0  0
 24 25  1  0  0  0  0
 25 26  1  0  0  0  0
M  CHG  2  13  -1  18  -1
M  END
>  <CHROM.1>
166.53700949,66.32802123,-82.24618370,-67.33853400,-65.50275629,-73.29857770
-178.47525521,-65.10024755,0.66351539,-13.25265785,-97.54543737,-2.73927741
0.15032216,0.13142375

>  <Name>
ligand

>  <RI>
0

>  <Rbt.Current_Directory>
/home/itssahil/PROJECTS/Mol_Feturizer/New_Systems/rnas/2CKY

>  <Rbt.Executable>
rbdock ($Id: //depot/dev/client3/rdock/2013.1/src/exe/rbdock.cxx#4 $)

>  <Rbt.Library>
libRbt.so (2013.1, Build901 2013/11/27)

>  <Rbt.Parameter_File>
/export/apps/rDock/src/rDock_2013.1_src/data/scripts/dock_solv.prm

>  <Rbt.Receptor>
prm/pocket_docking_5.prm

>  <SCORE>
-18.8874

>  <SCORE.INTER>
-12.6813

>  <SCORE.INTER.CONST>
1

>  <SCORE.INTER.POLAR>
0

>  <SCORE.INTER.ROT>
8

>  <SCORE.INTER.SOLV>
9.58219

>  <SCORE.INTER.VDW>
-20.5816

>  <SCORE.INTER.norm>
-0.487741

>  <SCORE.INTRA>
-6.20618

>  <SCORE.INTRA.DIHEDRAL>
-10.204

>  <SCORE.INTRA.DIHEDRAL.0>
16.4846

>  <SCORE.INTRA.POLAR>
0

>  <SCORE.INTRA.POLAR.0>
0

>  <SCORE.INTRA.REPUL>
0

>  <SCORE.INTRA.REPUL.0>
0

>  <SCORE.INTRA.SOLV>
0.965524

>  <SCORE.INTRA.SOLV.lig_0>
-82.6983

>  <SCORE.INTRA.VDW>
-1.58694

>  <SCORE.INTRA.VDW.0>
-2.11466

>  <SCORE.INTRA.norm>
-0.238699

>  <SCORE.RESTR>
0

>  <SCORE.RESTR.CAVITY>
0

>  <SCORE.RESTR.norm>
0

>  <SCORE.SYSTEM>
0

>  <SCORE.SYSTEM.CONST>
0

>  <SCORE.SYSTEM.DIHEDRAL>
0

>  <SCORE.SYSTEM.SOLV>
0

>  <SCORE.SYSTEM.norm>
0

>  <SCORE.heavy>
26

>  <SCORE.norm>
-0.72644

>  <RMSD>
7.339

$$$$
ligand
 OpenBabel11021811423D
libRbt.so/2013.1/901 2013/11/27
 26 27  0  0  0  0  0  0  0  0999 V2000
   -2.1946  -21.6126  -96.2582 C   0  0  0  0  0  0  0  0  0  0  0  0
   -1.0534  -15.0981 -100.5046 C   0  0  0  0  0  0  0  0  0  0  0  0
    0.9469  -12.8186  -98.5210 P   0  0  2  0  0  0  0  0  0  0  0  0
    2.9933  -11.1230  -97.7414 P   0  0  2  0  0  0  0  0  0  0  0  0
   -3.0605  -17.5080 -100.1657 C   0  0  0  0  0  0  0  0  0  0  0  0
   -3.8110  -19.4397  -98.7997 C   0  0  0  0  0  0  0  0  0  0  0  0
   -2.7916  -18.5517  -99.1182 C   0  0  0  0  0  0  0  0  0  0  0  0
   -1.5491  -18.6994  -98.4949 C   0  0  0  0  0  0  0  0  0  0  0  0
   -0.4951  -17.9173  -98.7296 N   0  0  0  0  0  0  0  0  0  0  0  0
   -1.3809  -19.7022  -97.5754 N   0  0  0  0  0  0  0  0  0  0  0  0
   -2.4087  -20.5486  -97.2680 C   0  0  0  0  0  0  0  0  0  0  0  0
   -3.6220  -20.4381  -97.8682 N   0  0  0  0  0  0  0  0  0  0  0  0
    1.8233  -14.0482  -98.6552 O   0  5  0  0  0  0  0  0  0  0  0  0
    3.9875  -12.1895  -98.1425 O   0  0  0  0  0  0  0  0  0  0  0  0
   -4.2311  -14.2170  -98.3860 S   0  0  0  0  0  0  0  0  0  0  0  0
   -4.2885  -15.7645  -98.8941 C   0  0  0  0  0  0  0  0  0  0  0  0
    0.7765  -12.2578  -99.9304 O   0  0  0  0  0  0  0  0  0  0  0  0
    3.4273  -10.3930  -96.4867 O   0  5  0  0  0  0  0  0  0  0  0  0
   -3.2095  -16.1645  -99.6595 N   0  0  0  0  0  0  0  0  0  0  0  0
    1.6247  -11.8683  -97.4059 O   0  0  0  0  0  0  0  0  0  0  0  0
    2.8437  -10.1550  -98.8974 O   0  0  0  0  0  0  0  0  0  0  0  0
   -2.3428  -15.1069  -99.7842 C   0  0  1  0  0  0  0  0  0  0  0  0
   -2.8244  -13.9777  -99.1033 C   0  0  2  0  0  0  0  0  0  0  0  0
   -2.3194  -12.5741  -98.8765 C   0  0  0  0  0  0  0  0  0  0  0  0
   -1.5736  -12.4593  -97.5427 C   0  0  0  0  0  0  0  0  0  0  0  0
   -0.3684  -13.2118  -97.6083 O   0  0  0  0  0  0  0  0  0  0  0  0
  1 11  1  0  0  0  0
  3 13  1  6  0  0  0
  3 17  2  0  0  0  0
  3 20  1  0  0  0  0
  3 26  1  0  0  0  0
  4 14  1  6  0  0  0
  4 18  1  0  0  0  0
  4 21  2  0  0  0  0
  4 20  1  0  0  0  0
  5 19  1  0  0  0  0
  5  7  1  0  0  0  0
  6  7  2  0  0  0  0
  6 12  1  0  0  0  0
  7  8  1  0  0  0  0
  8  9  1  0  0  0  0
  8 10  2  0  0  0  0
 10 11  1  0  0  0  0
 11 12  2  0  0  0  0
 15 23  1  0  0  0  0
 15 16  1  0  0  0  0
 16 19  1  0  0  0  0
 19 22  1  0  0  0  0
 22  2  1  1  0  0  0
 22 23  1  0  0  0  0
 23 24  1  1  0  0  0
 24 25  1  0  0  0  0
 25 26  1  0  0  0  0
M  CHG  2  13  -1  18  -1
M  END
>  <CHROM.1>
70.28602998,-68.88780824,107.48076112,-56.12956402,84.42095683,67.49126942
69.74041313,-162.73436172,-0.70893618,-14.81851626,-98.42444925,-2.20491752
-0.26354433,-0.15846823

>  <Name>
ligand

>  <RI>
0

>  <Rbt.Current_Directory>
/home/itssahil/PROJECTS/Mol_Feturizer/New_Systems/rnas/2CKY

>  <Rbt.Executable>
rbdock ($Id: //depot/dev/client3/rdock/2013.1/src/exe/rbdock.cxx#4 $)

>  <Rbt.Library>
libRbt.so (2013.1, Build901 2013/11/27)

>  <Rbt.Parameter_File>
/export/apps/rDock/src/rDock_2013.1_src/data/scripts/dock_solv.prm

>  <Rbt.Receptor>
prm/pocket_docking_6.prm

>  <SCORE>
-16.5492

>  <SCORE.INTER>
-11.3763

>  <SCORE.INTER.CONST>
1

>  <SCORE.INTER.POLAR>
0

>  <SCORE.INTER.ROT>
8

>  <SCORE.INTER.SOLV>
6.85306

>  <SCORE.INTER.VDW>
-18.8019

>  <SCORE.INTER.norm>
-0.437551

>  <SCORE.INTRA>
-5.18551

>  <SCORE.INTRA.DIHEDRAL>
-10.0332

>  <SCORE.INTRA.DIHEDRAL.0>
16.4846

>  <SCORE.INTRA.POLAR>
0

>  <SCORE.INTRA.POLAR.0>
0

>  <SCORE.INTRA.REPUL>
0

>  <SCORE.INTRA.REPUL.0>
0

>  <SCORE.INTRA.SOLV>
4.81452

>  <SCORE.INTRA.SOLV.lig_0>
-82.6983

>  <SCORE.INTRA.VDW>
-2.57617

>  <SCORE.INTRA.VDW.0>
-2.11466

>  <SCORE.INTRA.norm>
-0.199443

>  <SCORE.RESTR>
0.0125926

>  <SCORE.RESTR.CAVITY>
0.0125926

>  <SCORE.RESTR.norm>
0.000484331

>  <SCORE.SYSTEM>
0

>  <SCORE.SYSTEM.CONST>
0

>  <SCORE.SYSTEM.DIHEDRAL>
0

>  <SCORE.SYSTEM.SOLV>
0

>  <SCORE.SYSTEM.norm>
0

>  <SCORE.heavy>
26

>  <SCORE.norm>
-0.63651

>  <RMSD>
7.395

$$$$
ligand
 OpenBabel11021811423D
libRbt.so/2013.1/901 2013/11/27
 26 27  0  0  0  0  0  0  0  0999 V2000
    3.8560  -16.7435  -96.0007 C   0  0  0  0  0  0  0  0  0  0  0  0
   -0.6113  -14.9133 -100.4403 C   0  0  0  0  0  0  0  0  0  0  0  0
   -2.1347  -13.2938  -96.3156 P   0  0  2  0  0  0  0  0  0  0  0  0
    0.2176  -13.9392  -95.0038 P   0  0  2  0  0  0  0  0  0  0  0  0
    0.0117  -17.9833 -100.0689 C   0  0  0  0  0  0  0  0  0  0  0  0
    2.1960  -17.0853  -99.3054 C   0  0  0  0  0  0  0  0  0  0  0  0
    0.9966  -17.7000  -98.9696 C   0  0  0  0  0  0  0  0  0  0  0  0
    0.7344  -17.9779  -97.6249 C   0  0  0  0  0  0  0  0  0  0  0  0
   -0.3848  -18.5519  -97.1826 N   0  0  0  0  0  0  0  0  0  0  0  0
    1.6757  -17.6536  -96.6825 N   0  0  0  0  0  0  0  0  0  0  0  0
    2.8553  -17.0671  -97.0455 C   0  0  0  0  0  0  0  0  0  0  0  0
    3.1311  -16.7722  -98.3423 N   0  0  0  0  0  0  0  0  0  0  0  0
   -2.0449  -11.7810  -96.2778 O   0  5  0  0  0  0  0  0  0  0  0  0
    1.6190  -14.3627  -95.3825 O   0  0  0  0  0  0  0  0  0  0  0  0
   -3.7349  -17.0415  -99.4025 S   0  0  0  0  0  0  0  0  0  0  0  0
   -2.4169  -17.9883  -99.5520 C   0  0  0  0  0  0  0  0  0  0  0  0
   -3.0202  -13.7001  -95.1406 O   0  0  0  0  0  0  0  0  0  0  0  0
   -0.4572  -14.9616  -94.1122 O   0  5  0  0  0  0  0  0  0  0  0  0
   -1.2641  -17.3236  -99.9255 N   0  0  0  0  0  0  0  0  0  0  0  0
   -0.6239  -13.8612  -96.3554 O   0  0  0  0  0  0  0  0  0  0  0  0
    0.2997  -12.5957  -94.3080 O   0  0  0  0  0  0  0  0  0  0  0  0
   -1.5531  -15.9890 -100.0692 C   0  0  1  0  0  0  0  0  0  0  0  0
   -2.9056  -15.7337  -99.7935 C   0  0  2  0  0  0  0  0  0  0  0  0
   -3.7741  -14.5002  -99.7694 C   0  0  0  0  0  0  0  0  0  0  0  0
   -3.8323  -13.8874  -98.3661 C   0  0  0  0  0  0  0  0  0  0  0  0
   -2.5127  -13.7564  -97.8520 O   0  0  0  0  0  0  0  0  0  0  0  0
  1 11  1  0  0  0  0
  3 13  1  1  0  0  0
  3 17  2  0  0  0  0
  3 20  1  0  0  0  0
  3 26  1  0  0  0  0
  4 14  1  6  0  0  0
  4 18  1  0  0  0  0
  4 21  2  0  0  0  0
  4 20  1  0  0  0  0
  5 19  1  0  0  0  0
  5  7  1  0  0  0  0
  6  7  2  0  0  0  0
  6 12  1  0  0  0  0
  7  8  1  0  0  0  0
  8  9  1  0  0  0  0
  8 10  2  0  0  0  0
 10 11  1  0  0  0  0
 11 12  2  0  0  0  0
 15 23  1  0  0  0  0
 15 16  1  0  0  0  0
 16 19  1  0  0  0  0
 19 22  1  0  0  0  0
 22  2  1  1  0  0  0
 22 23  1  0  0  0  0
 23 24  1  1  0  0  0
 24 25  1  0  0  0  0
 25 26  1  0  0  0  0
M  CHG  2  13  -1  18  -1
M  END
>  <CHROM.1>
79.71437295,-106.07872601,-118.88429874,-174.05433084,86.70894220,49.21632150
-173.07391311,-88.04303661,-0.72107703,-15.43783500,-97.47090880,-1.47936642
0.43407981,-2.33428657

>  <Name>
ligand

>  <RI>
0

>  <Rbt.Current_Directory>
/home/itssahil/PROJECTS/Mol_Feturizer/New_Systems/rnas/2CKY

>  <Rbt.Executable>
rbdock ($Id: //depot/dev/client3/rdock/2013.1/src/exe/rbdock.cxx#4 $)

>  <Rbt.Library>
libRbt.so (2013.1, Build901 2013/11/27)

>  <Rbt.Parameter_File>
/export/apps/rDock/src/rDock_2013.1_src/data/scripts/dock_solv.prm

>  <Rbt.Receptor>
prm/pocket_docking_6.prm

>  <SCORE>
-14.8726

>  <SCORE.INTER>
-8.338

>  <SCORE.INTER.CONST>
1

>  <SCORE.INTER.POLAR>
0

>  <SCORE.INTER.ROT>
8

>  <SCORE.INTER.SOLV>
10.0664

>  <SCORE.INTER.VDW>
-17.8475

>  <SCORE.INTER.norm>
-0.320692

>  <SCORE.INTRA>
-6.53464

>  <SCORE.INTRA.DIHEDRAL>
-9.65523

>  <SCORE.INTRA.DIHEDRAL.0>
16.4846

>  <SCORE.INTRA.POLAR>
0

>  <SCORE.INTRA.POLAR.0>
0

>  <SCORE.INTRA.REPUL>
0

>  <SCORE.INTRA.REPUL.0>
0

>  <SCORE.INTRA.SOLV>
2.96054

>  <SCORE.INTRA.SOLV.lig_0>
-82.6983

>  <SCORE.INTRA.VDW>
-3.1873

>  <SCORE.INTRA.VDW.0>
-2.11466

>  <SCORE.INTRA.norm>
-0.251332

>  <SCORE.RESTR>
0

>  <SCORE.RESTR.CAVITY>
0

>  <SCORE.RESTR.norm>
0

>  <SCORE.SYSTEM>
0

>  <SCORE.SYSTEM.CONST>
0

>  <SCORE.SYSTEM.DIHEDRAL>
0

>  <SCORE.SYSTEM.SOLV>
0

>  <SCORE.SYSTEM.norm>
0

>  <SCORE.heavy>
26

>  <SCORE.norm>
-0.572025

>  <RMSD>
7.405

$$$$
ligand
 OpenBabel11021811423D
libRbt.so/2013.1/901 2013/11/27
 26 27  0  0  0  0  0  0  0  0999 V2000
    0.1307  -11.6537  -92.1521 C   0  0  0  0  0  0  0  0  0  0  0  0
   -0.3568  -13.0421  -99.4428 C   0  0  0  0  0  0  0  0  0  0  0  0
   -0.8571  -17.4817  -97.4242 P   0  0  2  0  0  0  0  0  0  0  0  0
    1.2491  -17.0940  -95.6680 P   0  0  2  0  0  0  0  0  0  0  0  0
   -1.6714  -10.8956  -97.5413 C   0  0  0  0  0  0  0  0  0  0  0  0
   -2.0172  -11.5812  -95.1811 C   0  0  0  0  0  0  0  0  0  0  0  0
   -1.1592  -11.0534  -96.1372 C   0  0  0  0  0  0  0  0  0  0  0  0
    0.1533  -10.7441  -95.7685 C   0  0  0  0  0  0  0  0  0  0  0  0
    1.0681  -10.2460  -96.6009 N   0  0  0  0  0  0  0  0  0  0  0  0
    0.5470  -10.9525  -94.4719 N   0  0  0  0  0  0  0  0  0  0  0  0
   -0.3259  -11.4550  -93.5484 C   0  0  0  0  0  0  0  0  0  0  0  0
   -1.6023  -11.7781  -93.8814 N   0  0  0  0  0  0  0  0  0  0  0  0
   -1.8022  -17.4004  -96.2417 O   0  5  0  0  0  0  0  0  0  0  0  0
    0.4316  -16.5405  -94.5225 O   0  0  0  0  0  0  0  0  0  0  0  0
   -4.1286  -13.7453  -98.6413 S   0  0  0  0  0  0  0  0  0  0  0  0
   -3.6193  -12.3976  -97.8793 C   0  0  0  0  0  0  0  0  0  0  0  0
   -0.7417  -18.9616  -97.7798 O   0  0  0  0  0  0  0  0  0  0  0  0
    2.6286  -16.4703  -95.7272 O   0  5  0  0  0  0  0  0  0  0  0  0
   -2.2934  -12.0738  -98.0964 N   0  0  0  0  0  0  0  0  0  0  0  0
    0.4915  -16.6955  -97.0127 O   0  0  0  0  0  0  0  0  0  0  0  0
    1.3494  -18.5962  -95.4969 O   0  0  0  0  0  0  0  0  0  0  0  0
   -1.7436  -13.0116  -98.9355 C   0  0  1  0  0  0  0  0  0  0  0  0
   -2.6917  -13.9814  -99.2975 C   0  0  2  0  0  0  0  0  0  0  0  0
   -2.6802  -15.2066 -100.1779 C   0  0  0  0  0  0  0  0  0  0  0  0
   -2.5108  -16.4854  -99.3507 C   0  0  0  0  0  0  0  0  0  0  0  0
   -1.3376  -16.3811  -98.5535 O   0  0  0  0  0  0  0  0  0  0  0  0
  1 11  1  0  0  0  0
  3 13  1  1  0  0  0
  3 17  2  0  0  0  0
  3 20  1  0  0  0  0
  3 26  1  0  0  0  0
  4 14  1  1  0  0  0
  4 18  1  0  0  0  0
  4 21  2  0  0  0  0
  4 20  1  0  0  0  0
  5 19  1  0  0  0  0
  5  7  1  0  0  0  0
  6  7  2  0  0  0  0
  6 12  1  0  0  0  0
  7  8  1  0  0  0  0
  8  9  1  0  0  0  0
  8 10  2  0  0  0  0
 10 11  1  0  0  0  0
 11 12  2  0  0  0  0
 15 23  1  0  0  0  0
 15 16  1  0  0  0  0
 16 19  1  0  0  0  0
 19 22  1  0  0  0  0
 22  2  1  6  0  0  0
 22 23  1  0  0  0  0
 23 24  1  6  0  0  0
 24 25  1  0  0  0  0
 25 26  1  0  0  0  0
M  CHG  2  13  -1  18  -1
M  END
>  <CHROM.1>
53.65806217,84.47523003,-50.33732801,-74.51147198,-81.22697876,-55.21435329
174.54398941,-70.76761067,-0.89053579,-14.48765088,-96.80502573,-1.80212578
0.86174619,-2.79550645

>  <Name>
ligand

>  <RI>
0

>  <Rbt.Current_Directory>
/home/itssahil/PROJECTS/Mol_Feturizer/New_Systems/rnas/2CKY

>  <Rbt.Executable>
rbdock ($Id: //depot/dev/client3/rdock/2013.1/src/exe/rbdock.cxx#4 $)

>  <Rbt.Library>
libRbt.so (2013.1, Build901 2013/11/27)

>  <Rbt.Parameter_File>
/export/apps/rDock/src/rDock_2013.1_src/data/scripts/dock_solv.prm

>  <Rbt.Receptor>
prm/pocket_docking_6.prm

>  <SCORE>
-18.1522

>  <SCORE.INTER>
-11.4842

>  <SCORE.INTER.CONST>
1

>  <SCORE.INTER.POLAR>
0

>  <SCORE.INTER.ROT>
8

>  <SCORE.INTER.SOLV>
9.60083

>  <SCORE.INTER.VDW>
-19.7897

>  <SCORE.INTER.norm>
-0.441699

>  <SCORE.INTRA>
-6.66803

>  <SCORE.INTRA.DIHEDRAL>
-10.4925

>  <SCORE.INTRA.DIHEDRAL.0>
16.4846

>  <SCORE.INTRA.POLAR>
0

>  <SCORE.INTRA.POLAR.0>
0

>  <SCORE.INTRA.REPUL>
0

>  <SCORE.INTRA.REPUL.0>
0

>  <SCORE.INTRA.SOLV>
0.951919

>  <SCORE.INTRA.SOLV.lig_0>
-82.6983

>  <SCORE.INTRA.VDW>
-1.89774

>  <SCORE.INTRA.VDW.0>
-2.11466

>  <SCORE.INTRA.norm>
-0.256463

>  <SCORE.RESTR>
0

>  <SCORE.RESTR.CAVITY>
0

>  <SCORE.RESTR.norm>
0

>  <SCORE.SYSTEM>
0

>  <SCORE.SYSTEM.CONST>
0

>  <SCORE.SYSTEM.DIHEDRAL>
0

>  <SCORE.SYSTEM.SOLV>
0

>  <SCORE.SYSTEM.norm>
0

>  <SCORE.heavy>
26

>  <SCORE.norm>
-0.698162

>  <RMSD>
7.438

$$$$
ligand
 OpenBabel11021811423D
libRbt.so/2013.1/901 2013/11/27
 26 27  0  0  0  0  0  0  0  0999 V2000
    0.8519  -20.5163 -100.0272 C   0  0  0  0  0  0  0  0  0  0  0  0
    0.0022  -16.2608  -92.4789 C   0  0  0  0  0  0  0  0  0  0  0  0
    5.0473  -15.4982  -92.0948 P   0  0  2  0  0  0  0  0  0  0  0  0
    4.2232  -16.1274  -94.6630 P   0  0  2  0  0  0  0  0  0  0  0  0
   -0.5201  -17.9760  -95.0744 C   0  0  0  0  0  0  0  0  0  0  0  0
   -0.3455  -19.9597  -96.5559 C   0  0  0  0  0  0  0  0  0  0  0  0
   -0.1220  -18.5999  -96.3825 C   0  0  0  0  0  0  0  0  0  0  0  0
    0.4098  -17.8629  -97.4446 C   0  0  0  0  0  0  0  0  0  0  0  0
    0.6546  -16.5530  -97.3995 N   0  0  0  0  0  0  0  0  0  0  0  0
    0.7122  -18.5073  -98.6162 N   0  0  0  0  0  0  0  0  0  0  0  0
    0.4995  -19.8504  -98.7505 C   0  0  0  0  0  0  0  0  0  0  0  0
   -0.0294  -20.5890  -97.7408 N   0  0  0  0  0  0  0  0  0  0  0  0
    4.3552  -14.1575  -92.2416 O   0  5  0  0  0  0  0  0  0  0  0  0
    3.4053  -17.3497  -94.3113 O   0  0  0  0  0  0  0  0  0  0  0  0
    2.0149  -19.6227  -92.5784 S   0  0  0  0  0  0  0  0  0  0  0  0
    1.0871  -19.4672  -93.9093 C   0  0  0  0  0  0  0  0  0  0  0  0
    6.2085  -15.2777  -91.1290 O   0  0  0  0  0  0  0  0  0  0  0  0
    4.8795  -16.2619  -96.0220 O   0  5  0  0  0  0  0  0  0  0  0  0
    0.3312  -18.3113  -93.9581 N   0  0  0  0  0  0  0  0  0  0  0  0
    5.3902  -16.0242  -93.5820 O   0  0  0  0  0  0  0  0  0  0  0  0
    3.3094  -14.9192  -94.6288 O   0  0  0  0  0  0  0  0  0  0  0  0
    0.5823  -17.5737  -92.8274 C   0  0  1  0  0  0  0  0  0  0  0  0
    1.5127  -18.2214  -91.9996 C   0  0  2  0  0  0  0  0  0  0  0  0
    2.1678  -17.9018  -90.6785 C   0  0  0  0  0  0  0  0  0  0  0  0
    2.9381  -16.5787  -90.7446 C   0  0  0  0  0  0  0  0  0  0  0  0
    3.9040  -16.6452  -91.7865 O   0  0  0  0  0  0  0  0  0  0  0  0
  1 11  1  0  0  0  0
  3 13  1  6  0  0  0
  3 17  2  0  0  0  0
  3 20  1  0  0  0  0
  3 26  1  0  0  0  0
  4 14  1  1  0  0  0
  4 18  1  0  0  0  0
  4 21  2  0  0  0  0
  4 20  1  0  0  0  0
  5 19  1  0  0  0  0
  5  7  1  0  0  0  0
  6  7  2  0  0  0  0
  6 12  1  0  0  0  0
  7  8  1  0  0  0  0
  8  9  1  0  0  0  0
  8 10  2  0  0  0  0
 10 11  1  0  0  0  0
 11 12  2  0  0  0  0
 15 23  1  0  0  0  0
 15 16  1  0  0  0  0
 16 19  1  0  0  0  0
 19 22  1  0  0  0  0
 22  2  1  6  0  0  0
 22 23  1  0  0  0  0
 23 24  1  6  0  0  0
 24 25  1  0  0  0  0
 25 26  1  0  0  0  0
M  CHG  2  13  -1  18  -1
M  END
>  <CHROM.1>
-54.13871559,-24.93990277,72.93603967,-75.53807258,121.32113780,-57.09740526
-173.28822221,-53.37274430,2.38853733,-17.41346870,-94.28778320,-2.33124585
0.67907676,1.54467842

>  <Name>
ligand

>  <RI>
0

>  <Rbt.Current_Directory>
/home/itssahil/PROJECTS/Mol_Feturizer/New_Systems/rnas/2CKY

>  <Rbt.Executable>
rbdock ($Id: //depot/dev/client3/rdock/2013.1/src/exe/rbdock.cxx#4 $)

>  <Rbt.Library>
libRbt.so (2013.1, Build901 2013/11/27)

>  <Rbt.Parameter_File>
/export/apps/rDock/src/rDock_2013.1_src/data/scripts/dock_solv.prm

>  <Rbt.Receptor>
prm/pocket_docking_6.prm

>  <SCORE>
-23.4814

>  <SCORE.INTER>
-15.4619

>  <SCORE.INTER.CONST>
1

>  <SCORE.INTER.POLAR>
0

>  <SCORE.INTER.ROT>
8

>  <SCORE.INTER.SOLV>
17.993

>  <SCORE.INTER.VDW>
-25.2389

>  <SCORE.INTER.norm>
-0.594688

>  <SCORE.INTRA>
-8.01955

>  <SCORE.INTRA.DIHEDRAL>
-10.8623

>  <SCORE.INTRA.DIHEDRAL.0>
16.4846

>  <SCORE.INTRA.POLAR>
0

>  <SCORE.INTRA.POLAR.0>
0

>  <SCORE.INTRA.REPUL>
0

>  <SCORE.INTRA.REPUL.0>
0

>  <SCORE.INTRA.SOLV>
0.907598

>  <SCORE.INTRA.SOLV.lig_0>
-82.6983

>  <SCORE.INTRA.VDW>
-3.04221

>  <SCORE.INTRA.VDW.0>
-2.11466

>  <SCORE.INTRA.norm>
-0.308444

>  <SCORE.RESTR>
0

>  <SCORE.RESTR.CAVITY>
0

>  <SCORE.RESTR.norm>
0

>  <SCORE.SYSTEM>
0

>  <SCORE.SYSTEM.CONST>
0

>  <SCORE.SYSTEM.DIHEDRAL>
0

>  <SCORE.SYSTEM.SOLV>
0

>  <SCORE.SYSTEM.norm>
0

>  <SCORE.heavy>
26

>  <SCORE.norm>
-0.903133

>  <RMSD>
7.442

$$$$
ligand
 OpenBabel11021811423D
libRbt.so/2013.1/901 2013/11/27
 26 27  0  0  0  0  0  0  0  0999 V2000
    0.1897  -11.6987  -92.1618 C   0  0  0  0  0  0  0  0  0  0  0  0
   -0.4089  -12.8796  -99.6118 C   0  0  0  0  0  0  0  0  0  0  0  0
    0.4699  -17.1002  -98.8789 P   0  0  2  0  0  0  0  0  0  0  0  0
    1.2224  -19.5380  -99.9565 P   0  0  2  0  0  0  0  0  0  0  0  0
   -1.6601  -10.8722  -97.5247 C   0  0  0  0  0  0  0  0  0  0  0  0
   -1.9865  -11.5831  -95.1692 C   0  0  0  0  0  0  0  0  0  0  0  0
   -1.1353  -11.0480  -96.1274 C   0  0  0  0  0  0  0  0  0  0  0  0
    0.1819  -10.7482  -95.7677 C   0  0  0  0  0  0  0  0  0  0  0  0
    1.0908  -10.2444  -96.6030 N   0  0  0  0  0  0  0  0  0  0  0  0
    0.5869  -10.9729  -94.4774 N   0  0  0  0  0  0  0  0  0  0  0  0
   -0.2792  -11.4823  -93.5513 C   0  0  0  0  0  0  0  0  0  0  0  0
   -1.5601  -11.7964  -93.8758 N   0  0  0  0  0  0  0  0  0  0  0  0
    1.8484  -16.4793  -98.9901 O   0  5  0  0  0  0  0  0  0  0  0  0
    0.9935  -20.1207  -98.5800 O   0  0  0  0  0  0  0  0  0  0  0  0
   -4.0904  -13.7570  -98.5922 S   0  0  0  0  0  0  0  0  0  0  0  0
   -3.5752  -12.4279  -97.8022 C   0  0  0  0  0  0  0  0  0  0  0  0
    0.3258  -17.5677  -97.4330 O   0  0  0  0  0  0  0  0  0  0  0  0
    2.6697  -19.1412 -100.1655 O   0  5  0  0  0  0  0  0  0  0  0  0
   -2.2791  -12.0459  -98.0926 N   0  0  0  0  0  0  0  0  0  0  0  0
    0.3491  -18.2075 -100.0473 O   0  0  0  0  0  0  0  0  0  0  0  0
    0.7974  -20.5671 -100.9841 O   0  0  0  0  0  0  0  0  0  0  0  0
   -1.7576  -12.9233  -99.0111 C   0  0  1  0  0  0  0  0  0  0  0  0
   -2.6953  -13.9098  -99.3545 C   0  0  2  0  0  0  0  0  0  0  0  0
   -2.7037  -15.0922 -100.2917 C   0  0  0  0  0  0  0  0  0  0  0  0
   -2.0213  -16.3095  -99.6587 C   0  0  0  0  0  0  0  0  0  0  0  0
   -0.6260  -16.0606  -99.5391 O   0  0  0  0  0  0  0  0  0  0  0  0
  1 11  1  0  0  0  0
  3 13  1  6  0  0  0
  3 17  2  0  0  0  0
  3 20  1  0  0  0  0
  3 26  1  0  0  0  0
  4 14  1  1  0  0  0
  4 18  1  0  0  0  0
  4 21  2  0  0  0  0
  4 20  1  0  0  0  0
  5 19  1  0  0  0  0
  5  7  1  0  0  0  0
  6  7  2  0  0  0  0
  6 12  1  0  0  0  0
  7  8  1  0  0  0  0
  8  9  1  0  0  0  0
  8 10  2  0  0  0  0
 10 11  1  0  0  0  0
 11 12  2  0  0  0  0
 15 23  1  0  0  0  0
 15 16  1  0  0  0  0
 16 19  1  0  0  0  0
 19 22  1  0  0  0  0
 22  2  1  6  0  0  0
 22 23  1  0  0  0  0
 23 24  1  6  0  0  0
 24 25  1  0  0  0  0
 25 26  1  0  0  0  0
M  CHG  2  13  -1  18  -1
M  END
>  <CHROM.1>
69.08289988,80.23874860,-50.98835671,50.92990140,-98.93216660,-68.94268756
178.59459683,177.94324834,-0.56237513,-14.89548886,-98.02811507,-1.85789604
0.63842581,-2.45986884

>  <Name>
ligand

>  <RI>
0

>  <Rbt.Current_Directory>
/home/itssahil/PROJECTS/Mol_Feturizer/New_Systems/rnas/2CKY

>  <Rbt.Executable>
rbdock ($Id: //depot/dev/client3/rdock/2013.1/src/exe/rbdock.cxx#4 $)

>  <Rbt.Library>
libRbt.so (2013.1, Build901 2013/11/27)

>  <Rbt.Parameter_File>
/export/apps/rDock/src/rDock_2013.1_src/data/scripts/dock_solv.prm

>  <Rbt.Receptor>
prm/pocket_docking_8.prm

>  <SCORE>
-20.2122

>  <SCORE.INTER>
-13.2505

>  <SCORE.INTER.CONST>
1

>  <SCORE.INTER.POLAR>
0

>  <SCORE.INTER.ROT>
8

>  <SCORE.INTER.SOLV>
9.85462

>  <SCORE.INTER.VDW>
-21.0519

>  <SCORE.INTER.norm>
-0.509634

>  <SCORE.INTRA>
-6.96178

>  <SCORE.INTRA.DIHEDRAL>
-11.0345

>  <SCORE.INTRA.DIHEDRAL.0>
16.4846

>  <SCORE.INTRA.POLAR>
0

>  <SCORE.INTRA.POLAR.0>
0

>  <SCORE.INTRA.REPUL>
0

>  <SCORE.INTRA.REPUL.0>
0

>  <SCORE.INTRA.SOLV>
0.798488

>  <SCORE.INTRA.SOLV.lig_0>
-82.6983

>  <SCORE.INTRA.VDW>
-1.84377

>  <SCORE.INTRA.VDW.0>
-2.11466

>  <SCORE.INTRA.norm>
-0.267761

>  <SCORE.RESTR>
8.88894e-05

>  <SCORE.RESTR.CAVITY>
8.88894e-05

>  <SCORE.RESTR.norm>
3.41882e-06

>  <SCORE.SYSTEM>
0

>  <SCORE.SYSTEM.CONST>
0

>  <SCORE.SYSTEM.DIHEDRAL>
0

>  <SCORE.SYSTEM.SOLV>
0

>  <SCORE.SYSTEM.norm>
0

>  <SCORE.heavy>
26

>  <SCORE.norm>
-0.777392

>  <RMSD>
7.448

$$$$
ligand
 OpenBabel11021811423D
libRbt.so/2013.1/901 2013/11/27
 26 27  0  0  0  0  0  0  0  0999 V2000
    1.1016   -8.3334  -96.8176 C   0  0  0  0  0  0  0  0  0  0  0  0
   -2.2888  -15.6327  -95.9809 C   0  0  0  0  0  0  0  0  0  0  0  0
   -0.3196  -15.3437 -101.1455 P   0  0  2  0  0  0  0  0  0  0  0  0
    1.5713  -13.5406 -100.2268 P   0  0  2  0  0  0  0  0  0  0  0  0
   -2.5887  -12.5257  -95.5248 C   0  0  0  0  0  0  0  0  0  0  0  0
   -1.7779  -10.6742  -96.9654 C   0  0  0  0  0  0  0  0  0  0  0  0
   -1.5808  -11.4544  -95.8334 C   0  0  0  0  0  0  0  0  0  0  0  0
   -0.4902  -11.1765  -95.0041 C   0  0  0  0  0  0  0  0  0  0  0  0
   -0.2079  -11.8474  -93.8870 N   0  0  0  0  0  0  0  0  0  0  0  0
    0.3610  -10.1569  -95.3435 N   0  0  0  0  0  0  0  0  0  0  0  0
    0.1523   -9.4190  -96.4745 C   0  0  0  0  0  0  0  0  0  0  0  0
   -0.9068   -9.6568  -97.2909 N   0  0  0  0  0  0  0  0  0  0  0  0
    0.6249  -16.3692 -100.5501 O   0  5  0  0  0  0  0  0  0  0  0  0
    2.3210  -13.8598 -101.5007 O   0  0  0  0  0  0  0  0  0  0  0  0
   -4.0056  -13.7597  -98.9655 S   0  0  0  0  0  0  0  0  0  0  0  0
   -3.6330  -12.7174  -97.7693 C   0  0  0  0  0  0  0  0  0  0  0  0
   -0.1984  -15.4784 -102.6611 O   0  0  0  0  0  0  0  0  0  0  0  0
    2.0546  -14.3830  -99.0638 O   0  5  0  0  0  0  0  0  0  0  0  0
   -3.0294  -13.2912  -96.6663 N   0  0  0  0  0  0  0  0  0  0  0  0
    0.0436  -13.9177 -100.4817 O   0  0  0  0  0  0  0  0  0  0  0  0
    1.7497  -12.0659  -99.9282 O   0  0  0  0  0  0  0  0  0  0  0  0
   -2.8964  -14.6395  -96.8898 C   0  0  1  0  0  0  0  0  0  0  0  0
   -3.4077  -14.9946  -98.1480 C   0  0  2  0  0  0  0  0  0  0  0  0
   -3.5213  -16.2813  -98.9278 C   0  0  0  0  0  0  0  0  0  0  0  0
   -2.2090  -16.6156  -99.6450 C   0  0  0  0  0  0  0  0  0  0  0  0
   -1.7843  -15.4897 -100.4033 O   0  0  0  0  0  0  0  0  0  0  0  0
  1 11  1  0  0  0  0
  3 13  1  1  0  0  0
  3 17  2  0  0  0  0
  3 20  1  0  0  0  0
  3 26  1  0  0  0  0
  4 14  1  6  0  0  0
  4 18  1  0  0  0  0
  4 21  2  0  0  0  0
  4 20  1  0  0  0  0
  5 19  1  0  0  0  0
  5  7  1  0  0  0  0
  6  7  2  0  0  0  0
  6 12  1  0  0  0  0
  7  8  1  0  0  0  0
  8  9  1  0  0  0  0
  8 10  2  0  0  0  0
 10 11  1  0  0  0  0
 11 12  2  0  0  0  0
 15 23  1  0  0  0  0
 15 16  1  0  0  0  0
 16 19  1  0  0  0  0
 19 22  1  0  0  0  0
 22  2  1  6  0  0  0
 22 23  1  0  0  0  0
 23 24  1  6  0  0  0
 24 25  1  0  0  0  0
 25 26  1  0  0  0  0
M  CHG  2  13  -1  18  -1
M  END
>  <CHROM.1>
39.22483273,-58.67278541,42.59197644,47.46366882,97.71783903,-51.83558375
170.59413793,-17.17070008,-0.87015844,-13.41205744,-98.51999916,-1.65825847
-0.52197793,-2.36014012

>  <Name>
ligand

>  <RI>
0

>  <Rbt.Current_Directory>
/home/itssahil/PROJECTS/Mol_Feturizer/New_Systems/rnas/2CKY

>  <Rbt.Executable>
rbdock ($Id: //depot/dev/client3/rdock/2013.1/src/exe/rbdock.cxx#4 $)

>  <Rbt.Library>
libRbt.so (2013.1, Build901 2013/11/27)

>  <Rbt.Parameter_File>
/export/apps/rDock/src/rDock_2013.1_src/data/scripts/dock_solv.prm

>  <Rbt.Receptor>
prm/pocket_docking_6.prm

>  <SCORE>
-20.7745

>  <SCORE.INTER>
-15.4556

>  <SCORE.INTER.CONST>
1

>  <SCORE.INTER.POLAR>
0

>  <SCORE.INTER.ROT>
8

>  <SCORE.INTER.SOLV>
15.9668

>  <SCORE.INTER.VDW>
-24.5593

>  <SCORE.INTER.norm>
-0.594445

>  <SCORE.INTRA>
-5.3189

>  <SCORE.INTRA.DIHEDRAL>
-7.99141

>  <SCORE.INTRA.DIHEDRAL.0>
16.4846

>  <SCORE.INTRA.POLAR>
0

>  <SCORE.INTRA.POLAR.0>
0

>  <SCORE.INTRA.REPUL>
0

>  <SCORE.INTRA.REPUL.0>
0

>  <SCORE.INTRA.SOLV>
0.0691496

>  <SCORE.INTRA.SOLV.lig_0>
-82.6983

>  <SCORE.INTRA.VDW>
-1.35777

>  <SCORE.INTRA.VDW.0>
-2.11466

>  <SCORE.INTRA.norm>
-0.204573

>  <SCORE.RESTR>
0

>  <SCORE.RESTR.CAVITY>
0

>  <SCORE.RESTR.norm>
0

>  <SCORE.SYSTEM>
0

>  <SCORE.SYSTEM.CONST>
0

>  <SCORE.SYSTEM.DIHEDRAL>
0

>  <SCORE.SYSTEM.SOLV>
0

>  <SCORE.SYSTEM.norm>
0

>  <SCORE.heavy>
26

>  <SCORE.norm>
-0.799018

>  <RMSD>
7.449

$$$$
ligand
 OpenBabel11021811423D
libRbt.so/2013.1/901 2013/11/27
 26 27  0  0  0  0  0  0  0  0999 V2000
   -0.1165  -11.8541  -91.2302 C   0  0  0  0  0  0  0  0  0  0  0  0
   -1.1769  -15.4118  -96.7106 C   0  0  0  0  0  0  0  0  0  0  0  0
   -3.7050  -19.4722  -99.5161 P   0  0  2  0  0  0  0  0  0  0  0  0
   -2.7468  -21.2271  -97.5997 P   0  0  2  0  0  0  0  0  0  0  0  0
   -0.3648  -12.3718  -96.9342 C   0  0  0  0  0  0  0  0  0  0  0  0
   -1.3544  -11.7986  -94.7313 C   0  0  0  0  0  0  0  0  0  0  0  0
   -0.2424  -12.2301  -95.4430 C   0  0  0  0  0  0  0  0  0  0  0  0
    0.9195  -12.5646  -94.7413 C   0  0  0  0  0  0  0  0  0  0  0  0
    2.0413  -13.0016  -95.3141 N   0  0  0  0  0  0  0  0  0  0  0  0
    0.9322  -12.4380  -93.3763 N   0  0  0  0  0  0  0  0  0  0  0  0
   -0.1714  -11.9921  -92.7051 C   0  0  0  0  0  0  0  0  0  0  0  0
   -1.3184  -11.6737  -93.3590 N   0  0  0  0  0  0  0  0  0  0  0  0
   -4.7968  -20.0415 -100.4005 O   0  5  0  0  0  0  0  0  0  0  0  0
   -2.5178  -22.1702  -98.7594 O   0  0  0  0  0  0  0  0  0  0  0  0
   -3.8608  -13.1912  -98.5073 S   0  0  0  0  0  0  0  0  0  0  0  0
   -2.5864  -12.2892  -98.0399 C   0  0  0  0  0  0  0  0  0  0  0  0
   -2.3952  -19.6614 -100.2767 O   0  0  0  0  0  0  0  0  0  0  0  0
   -3.3027  -21.9490  -96.3891 O   0  5  0  0  0  0  0  0  0  0  0  0
   -1.5889  -12.9883  -97.3868 N   0  0  0  0  0  0  0  0  0  0  0  0
   -3.8476  -20.1741  -98.0694 O   0  0  0  0  0  0  0  0  0  0  0  0
   -1.4289  -20.5589  -97.2642 O   0  0  0  0  0  0  0  0  0  0  0  0
   -1.9551  -14.3095  -97.3113 C   0  0  1  0  0  0  0  0  0  0  0  0
   -3.2052  -14.5211  -97.9138 C   0  0  2  0  0  0  0  0  0  0  0  0
   -4.0867  -15.7235  -98.1459 C   0  0  0  0  0  0  0  0  0  0  0  0
   -3.2942  -16.8861  -98.7531 C   0  0  0  0  0  0  0  0  0  0  0  0
   -4.1725  -17.9756  -99.0071 O   0  0  0  0  0  0  0  0  0  0  0  0
  1 11  1  0  0  0  0
  3 13  1  6  0  0  0
  3 17  2  0  0  0  0
  3 20  1  0  0  0  0
  3 26  1  0  0  0  0
  4 14  1  6  0  0  0
  4 18  1  0  0  0  0
  4 21  2  0  0  0  0
  4 20  1  0  0  0  0
  5 19  1  0  0  0  0
  5  7  1  0  0  0  0
  6  7  2  0  0  0  0
  6 12  1  0  0  0  0
  7  8  1  0  0  0  0
  8  9  1  0  0  0  0
  8 10  2  0  0  0  0
 10 11  1  0  0  0  0
 11 12  2  0  0  0  0
 15 23  1  0  0  0  0
 15 16  1  0  0  0  0
 16 19  1  0  0  0  0
 19 22  1  0  0  0  0
 22  2  1  6  0  0  0
 22 23  1  0  0  0  0
 23 24  1  6  0  0  0
 24 25  1  0  0  0  0
 25 26  1  0  0  0  0
M  CHG  2  13  -1  18  -1
M  END
>  <CHROM.1>
109.36519598,109.26344780,-43.05432084,-46.70056850,130.55176361,-177.55783308
-173.54775172,-147.50412117,-2.18381150,-16.21975750,-97.13083080,-1.03603115
0.95422221,-3.13791556

>  <Name>
ligand

>  <RI>
0

>  <Rbt.Current_Directory>
/home/itssahil/PROJECTS/Mol_Feturizer/New_Systems/rnas/2CKY

>  <Rbt.Executable>
rbdock ($Id: //depot/dev/client3/rdock/2013.1/src/exe/rbdock.cxx#4 $)

>  <Rbt.Library>
libRbt.so (2013.1, Build901 2013/11/27)

>  <Rbt.Parameter_File>
/export/apps/rDock/src/rDock_2013.1_src/data/scripts/dock_solv.prm

>  <Rbt.Receptor>
prm/pocket_docking_8.prm

>  <SCORE>
-19.6803

>  <SCORE.INTER>
-14.6189

>  <SCORE.INTER.CONST>
1

>  <SCORE.INTER.POLAR>
0

>  <SCORE.INTER.ROT>
8

>  <SCORE.INTER.SOLV>
17.6783

>  <SCORE.INTER.VDW>
-24.5721

>  <SCORE.INTER.norm>
-0.562267

>  <SCORE.INTRA>
-5.0614

>  <SCORE.INTRA.DIHEDRAL>
-7.54899

>  <SCORE.INTRA.DIHEDRAL.0>
16.4846

>  <SCORE.INTRA.POLAR>
0

>  <SCORE.INTRA.POLAR.0>
0

>  <SCORE.INTRA.REPUL>
0

>  <SCORE.INTRA.REPUL.0>
0

>  <SCORE.INTRA.SOLV>
0.0367415

>  <SCORE.INTRA.SOLV.lig_0>
-82.6983

>  <SCORE.INTRA.VDW>
-1.30528

>  <SCORE.INTRA.VDW.0>
-2.11466

>  <SCORE.INTRA.norm>
-0.194669

>  <SCORE.RESTR>
0

>  <SCORE.RESTR.CAVITY>
0

>  <SCORE.RESTR.norm>
0

>  <SCORE.SYSTEM>
0

>  <SCORE.SYSTEM.CONST>
0

>  <SCORE.SYSTEM.DIHEDRAL>
0

>  <SCORE.SYSTEM.SOLV>
0

>  <SCORE.SYSTEM.norm>
0

>  <SCORE.heavy>
26

>  <SCORE.norm>
-0.756936

>  <RMSD>
7.495

$$$$
ligand
 OpenBabel11021811423D
libRbt.so/2013.1/901 2013/11/27
 26 27  0  0  0  0  0  0  0  0999 V2000
   -3.2178  -21.9633  -97.0411 C   0  0  0  0  0  0  0  0  0  0  0  0
   -1.5305  -14.6588 -100.2054 C   0  0  0  0  0  0  0  0  0  0  0  0
    3.0107  -12.1607  -97.2859 P   0  0  2  0  0  0  0  0  0  0  0  0
    3.2925   -9.9784  -98.9677 P   0  0  2  0  0  0  0  0  0  0  0  0
   -3.7398  -16.7115  -99.2797 C   0  0  0  0  0  0  0  0  0  0  0  0
   -4.6075  -18.9777  -98.7580 C   0  0  0  0  0  0  0  0  0  0  0  0
   -3.5632  -18.0677  -98.6564 C   0  0  0  0  0  0  0  0  0  0  0  0
   -2.3787  -18.4673  -98.0307 C   0  0  0  0  0  0  0  0  0  0  0  0
   -1.3072  -17.6870  -97.8861 N   0  0  0  0  0  0  0  0  0  0  0  0
   -2.2913  -19.7365  -97.5199 N   0  0  0  0  0  0  0  0  0  0  0  0
   -3.3430  -20.6034  -97.6177 C   0  0  0  0  0  0  0  0  0  0  0  0
   -4.5004  -20.2477  -98.2330 N   0  0  0  0  0  0  0  0  0  0  0  0
    3.3192  -12.4814  -95.8367 O   0  5  0  0  0  0  0  0  0  0  0  0
    4.4028  -10.6816  -99.7157 O   0  0  0  0  0  0  0  0  0  0  0  0
   -2.7630  -14.0964  -96.5273 S   0  0  0  0  0  0  0  0  0  0  0  0
   -3.5491  -15.3485  -97.2131 C   0  0  0  0  0  0  0  0  0  0  0  0
    3.8302  -13.1377  -98.1248 O   0  0  0  0  0  0  0  0  0  0  0  0
    3.5531   -8.4911  -98.8424 O   0  5  0  0  0  0  0  0  0  0  0  0
   -3.1854  -15.6172  -98.5191 N   0  0  0  0  0  0  0  0  0  0  0  0
    3.2738  -10.5814  -97.4922 O   0  0  0  0  0  0  0  0  0  0  0  0
    1.9913  -10.2324  -99.7011 O   0  0  0  0  0  0  0  0  0  0  0  0
   -2.2152  -14.7225  -98.8981 C   0  0  1  0  0  0  0  0  0  0  0  0
   -1.9095  -13.8375  -97.8523 C   0  0  2  0  0  0  0  0  0  0  0  0
   -0.9474  -12.6889  -97.6749 C   0  0  0  0  0  0  0  0  0  0  0  0
    0.5014  -13.1825  -97.6001 C   0  0  0  0  0  0  0  0  0  0  0  0
    1.3744  -12.0679  -97.4634 O   0  0  0  0  0  0  0  0  0  0  0  0
  1 11  1  0  0  0  0
  3 13  1  1  0  0  0
  3 17  2  0  0  0  0
  3 20  1  0  0  0  0
  3 26  1  0  0  0  0
  4 14  1  6  0  0  0
  4 18  1  0  0  0  0
  4 21  2  0  0  0  0
  4 20  1  0  0  0  0
  5 19  1  0  0  0  0
  5  7  1  0  0  0  0
  6  7  2  0  0  0  0
  6 12  1  0  0  0  0
  7  8  1  0  0  0  0
  8  9  1  0  0  0  0
  8 10  2  0  0  0  0
 10 11  1  0  0  0  0
 11 12  2  0  0  0  0
 15 23  1  0  0  0  0
 15 16  1  0  0  0  0
 16 19  1  0  0  0  0
 19 22  1  0  0  0  0
 22  2  1  1  0  0  0
 22 23  1  0  0  0  0
 23 24  1  1  0  0  0
 24 25  1  0  0  0  0
 25 26  1  0  0  0  0
M  CHG  2  13  -1  18  -1
M  END
>  <CHROM.1>
169.05601605,-57.02165028,141.45766200,-60.19501353,108.79493612,178.70602680
177.33745627,-80.25395762,-0.22145085,-14.33671657,-98.04906700,-2.26422281
-0.15937806,-0.17588832

>  <Name>
ligand

>  <RI>
0

>  <Rbt.Current_Directory>
/home/itssahil/PROJECTS/Mol_Feturizer/New_Systems/rnas/2CKY

>  <Rbt.Executable>
rbdock ($Id: //depot/dev/client3/rdock/2013.1/src/exe/rbdock.cxx#4 $)

>  <Rbt.Library>
libRbt.so (2013.1, Build901 2013/11/27)

>  <Rbt.Parameter_File>
/export/apps/rDock/src/rDock_2013.1_src/data/scripts/dock_solv.prm

>  <Rbt.Receptor>
prm/pocket_docking_8.prm

>  <SCORE>
-18.1274

>  <SCORE.INTER>
-11.8419

>  <SCORE.INTER.CONST>
1

>  <SCORE.INTER.POLAR>
0

>  <SCORE.INTER.ROT>
8

>  <SCORE.INTER.SOLV>
7.27664

>  <SCORE.INTER.VDW>
-19.2535

>  <SCORE.INTER.norm>
-0.455459

>  <SCORE.INTRA>
-6.28541

>  <SCORE.INTRA.DIHEDRAL>
-11.2036

>  <SCORE.INTRA.DIHEDRAL.0>
16.4846

>  <SCORE.INTRA.POLAR>
0

>  <SCORE.INTRA.POLAR.0>
0

>  <SCORE.INTRA.REPUL>
0

>  <SCORE.INTRA.REPUL.0>
0

>  <SCORE.INTRA.SOLV>
2.83144

>  <SCORE.INTRA.SOLV.lig_0>
-82.6983

>  <SCORE.INTRA.VDW>
-2.09935

>  <SCORE.INTRA.VDW.0>
-2.11466

>  <SCORE.INTRA.norm>
-0.241747

>  <SCORE.RESTR>
0

>  <SCORE.RESTR.CAVITY>
0

>  <SCORE.RESTR.norm>
0

>  <SCORE.SYSTEM>
0

>  <SCORE.SYSTEM.CONST>
0

>  <SCORE.SYSTEM.DIHEDRAL>
0

>  <SCORE.SYSTEM.SOLV>
0

>  <SCORE.SYSTEM.norm>
0

>  <SCORE.heavy>
26

>  <SCORE.norm>
-0.697206

>  <RMSD>
7.503

$$$$
ligand
 OpenBabel11021811423D
libRbt.so/2013.1/901 2013/11/27
 26 27  0  0  0  0  0  0  0  0999 V2000
    0.8938  -13.1357  -91.7948 C   0  0  0  0  0  0  0  0  0  0  0  0
   -2.7742  -13.8353  -95.5715 C   0  0  0  0  0  0  0  0  0  0  0  0
   -3.1762  -19.1610  -99.2481 P   0  0  2  0  0  0  0  0  0  0  0  0
   -1.8434  -20.8868  -97.5405 P   0  0  2  0  0  0  0  0  0  0  0  0
   -1.4399  -11.1908  -96.6565 C   0  0  0  0  0  0  0  0  0  0  0  0
   -1.3681  -11.4152  -94.1857 C   0  0  0  0  0  0  0  0  0  0  0  0
   -0.7771  -11.7038  -95.4090 C   0  0  0  0  0  0  0  0  0  0  0  0
    0.3715  -12.5003  -95.4320 C   0  0  0  0  0  0  0  0  0  0  0  0
    1.0167  -12.8532  -96.5442 N   0  0  0  0  0  0  0  0  0  0  0  0
    0.8898  -12.9550  -94.2471 N   0  0  0  0  0  0  0  0  0  0  0  0
    0.2972  -12.6381  -93.0573 C   0  0  0  0  0  0  0  0  0  0  0  0
   -0.8275  -11.8785  -93.0054 N   0  0  0  0  0  0  0  0  0  0  0  0
   -4.3054  -20.0687  -99.6943 O   0  5  0  0  0  0  0  0  0  0  0  0
   -0.5245  -20.5920  -98.2191 O   0  0  0  0  0  0  0  0  0  0  0  0
   -3.1210  -13.3703  -99.4480 S   0  0  0  0  0  0  0  0  0  0  0  0
   -2.3206  -12.1141  -98.7865 C   0  0  0  0  0  0  0  0  0  0  0  0
   -2.1065  -19.2421 -100.3340 O   0  0  0  0  0  0  0  0  0  0  0  0
   -2.5529  -22.0640  -98.1780 O   0  5  0  0  0  0  0  0  0  0  0  0
   -2.1574  -12.1867  -97.4160 N   0  0  0  0  0  0  0  0  0  0  0  0
   -2.7689  -19.6060  -97.7508 O   0  0  0  0  0  0  0  0  0  0  0  0
   -1.5726  -21.1569  -96.0744 O   0  0  0  0  0  0  0  0  0  0  0  0
   -2.7328  -13.3493  -96.9657 C   0  0  1  0  0  0  0  0  0  0  0  0
   -3.2918  -14.0787  -98.0268 C   0  0  2  0  0  0  0  0  0  0  0  0
   -4.0184  -15.3954  -98.1488 C   0  0  0  0  0  0  0  0  0  0  0  0
   -3.0731  -16.5133  -98.6014 C   0  0  0  0  0  0  0  0  0  0  0  0
   -3.8174  -17.7078  -98.8070 O   0  0  0  0  0  0  0  0  0  0  0  0
  1 11  1  0  0  0  0
  3 13  1  6  0  0  0
  3 17  2  0  0  0  0
  3 20  1  0  0  0  0
  3 26  1  0  0  0  0
  4 14  1  6  0  0  0
  4 18  1  0  0  0  0
  4 21  2  0  0  0  0
  4 20  1  0  0  0  0
  5 19  1  0  0  0  0
  5  7  1  0  0  0  0
  6  7  2  0  0  0  0
  6 12  1  0  0  0  0
  7  8  1  0  0  0  0
  8  9  1  0  0  0  0
  8 10  2  0  0  0  0
 10 11  1  0  0  0  0
 11 12  2  0  0  0  0
 15 23  1  0  0  0  0
 15 16  1  0  0  0  0
 16 19  1  0  0  0  0
 19 22  1  0  0  0  0
 22  2  1  6  0  0  0
 22 23  1  0  0  0  0
 23 24  1  6  0  0  0
 24 25  1  0  0  0  0
 25 26  1  0  0  0  0
M  CHG  2  13  -1  18  -1
M  END
>  <CHROM.1>
79.28000024,-150.77591754,-104.23161020,61.93387812,80.80822551,-175.35017710
-177.80394919,-166.05433071,-1.95791377,-15.96909569,-97.18889419,-1.19434264
0.98827185,-3.06383894

>  <Name>
ligand

>  <RI>
0

>  <Rbt.Current_Directory>
/home/itssahil/PROJECTS/Mol_Feturizer/New_Systems/rnas/2CKY

>  <Rbt.Executable>
rbdock ($Id: //depot/dev/client3/rdock/2013.1/src/exe/rbdock.cxx#4 $)

>  <Rbt.Library>
libRbt.so (2013.1, Build901 2013/11/27)

>  <Rbt.Parameter_File>
/export/apps/rDock/src/rDock_2013.1_src/data/scripts/dock_solv.prm

>  <Rbt.Receptor>
prm/pocket_docking_7.prm

>  <SCORE>
-21.0924

>  <SCORE.INTER>
-16.1963

>  <SCORE.INTER.CONST>
1

>  <SCORE.INTER.POLAR>
0

>  <SCORE.INTER.ROT>
8

>  <SCORE.INTER.SOLV>
15.4589

>  <SCORE.INTER.VDW>
-24.8838

>  <SCORE.INTER.norm>
-0.622933

>  <SCORE.INTRA>
-4.89614

>  <SCORE.INTRA.DIHEDRAL>
-10.4421

>  <SCORE.INTRA.DIHEDRAL.0>
16.4846

>  <SCORE.INTRA.POLAR>
0

>  <SCORE.INTRA.POLAR.0>
0

>  <SCORE.INTRA.REPUL>
0

>  <SCORE.INTRA.REPUL.0>
0

>  <SCORE.INTRA.SOLV>
1.56771

>  <SCORE.INTRA.SOLV.lig_0>
-82.6983

>  <SCORE.INTRA.VDW>
-0.458968

>  <SCORE.INTRA.VDW.0>
-2.11466

>  <SCORE.INTRA.norm>
-0.188313

>  <SCORE.RESTR>
0

>  <SCORE.RESTR.CAVITY>
0

>  <SCORE.RESTR.norm>
0

>  <SCORE.SYSTEM>
0

>  <SCORE.SYSTEM.CONST>
0

>  <SCORE.SYSTEM.DIHEDRAL>
0

>  <SCORE.SYSTEM.SOLV>
0

>  <SCORE.SYSTEM.norm>
0

>  <SCORE.heavy>
26

>  <SCORE.norm>
-0.811246

>  <RMSD>
7.532

$$$$
ligand
 OpenBabel11021811423D
libRbt.so/2013.1/901 2013/11/27
 26 27  0  0  0  0  0  0  0  0999 V2000
    0.0964  -11.7493  -92.1030 C   0  0  0  0  0  0  0  0  0  0  0  0
   -0.3603  -12.9442  -99.4967 C   0  0  0  0  0  0  0  0  0  0  0  0
   -0.9856  -17.5125  -97.5277 P   0  0  2  0  0  0  0  0  0  0  0  0
   -1.8553  -15.8534  -95.4877 P   0  0  2  0  0  0  0  0  0  0  0  0
   -1.6599  -10.8849  -97.4913 C   0  0  0  0  0  0  0  0  0  0  0  0
   -2.0367  -11.5799  -95.1386 C   0  0  0  0  0  0  0  0  0  0  0  0
   -1.1584  -11.0718  -96.0869 C   0  0  0  0  0  0  0  0  0  0  0  0
    0.1621  -10.8087  -95.7109 C   0  0  0  0  0  0  0  0  0  0  0  0
    1.0957  -10.3332  -96.5356 N   0  0  0  0  0  0  0  0  0  0  0  0
    0.5439  -11.0413  -94.4149 N   0  0  0  0  0  0  0  0  0  0  0  0
   -0.3483  -11.5233  -93.4990 C   0  0  0  0  0  0  0  0  0  0  0  0
   -1.6333  -11.8018  -93.8393 N   0  0  0  0  0  0  0  0  0  0  0  0
   -1.1902  -18.9520  -97.9568 O   0  5  0  0  0  0  0  0  0  0  0  0
   -1.7320  -16.0729  -93.9967 O   0  0  0  0  0  0  0  0  0  0  0  0
   -4.1042  -13.7265  -98.6398 S   0  0  0  0  0  0  0  0  0  0  0  0
   -3.5955  -12.4001  -97.8409 C   0  0  0  0  0  0  0  0  0  0  0  0
    0.5238  -17.2925  -97.4714 O   0  0  0  0  0  0  0  0  0  0  0  0
   -3.1737  -15.2026  -95.8532 O   0  5  0  0  0  0  0  0  0  0  0  0
   -2.2789  -12.0509  -98.0749 N   0  0  0  0  0  0  0  0  0  0  0  0
   -1.8328  -17.2934  -96.1712 O   0  0  0  0  0  0  0  0  0  0  0  0
   -0.6923  -14.9931  -95.9384 O   0  0  0  0  0  0  0  0  0  0  0  0
   -1.7359  -12.9505  -98.9588 C   0  0  1  0  0  0  0  0  0  0  0  0
   -2.6793  -13.9196  -99.3349 C   0  0  2  0  0  0  0  0  0  0  0  0
   -2.6716  -15.1123 -100.2589 C   0  0  0  0  0  0  0  0  0  0  0  0
   -1.6552  -16.1642  -99.8021 C   0  0  0  0  0  0  0  0  0  0  0  0
   -1.9411  -16.5480  -98.4627 O   0  0  0  0  0  0  0  0  0  0  0  0
  1 11  1  0  0  0  0
  3 13  1  6  0  0  0
  3 17  2  0  0  0  0
  3 20  1  0  0  0  0
  3 26  1  0  0  0  0
  4 14  1  1  0  0  0
  4 18  1  0  0  0  0
  4 21  2  0  0  0  0
  4 20  1  0  0  0  0
  5 19  1  0  0  0  0
  5  7  1  0  0  0  0
  6  7  2  0  0  0  0
  6 12  1  0  0  0  0
  7  8  1  0  0  0  0
  8  9  1  0  0  0  0
  8 10  2  0  0  0  0
 10 11  1  0  0  0  0
 11 12  2  0  0  0  0
 15 23  1  0  0  0  0
 15 16  1  0  0  0  0
 16 19  1  0  0  0  0
 19 22  1  0  0  0  0
 22  2  1  6  0  0  0
 22 23  1  0  0  0  0
 23 24  1  6  0  0  0
 24 25  1  0  0  0  0
 25 26  1  0  0  0  0
M  CHG  2  13  -1  18  -1
M  END
>  <CHROM.1>
-178.22388832,82.40917589,-52.26708958,-138.40394036,-118.36516959,56.46844867
-172.00650913,-77.67737700,-1.52246972,-14.20958562,-96.82400464,-1.07116947
1.20831359,-3.11510502

>  <Name>
ligand

>  <RI>
0

>  <Rbt.Current_Directory>
/home/itssahil/PROJECTS/Mol_Feturizer/New_Systems/rnas/2CKY

>  <Rbt.Executable>
rbdock ($Id: //depot/dev/client3/rdock/2013.1/src/exe/rbdock.cxx#4 $)

>  <Rbt.Library>
libRbt.so (2013.1, Build901 2013/11/27)

>  <Rbt.Parameter_File>
/export/apps/rDock/src/rDock_2013.1_src/data/scripts/dock_solv.prm

>  <Rbt.Receptor>
prm/pocket_docking_7.prm

>  <SCORE>
-22.7004

>  <SCORE.INTER>
-15.2676

>  <SCORE.INTER.CONST>
1

>  <SCORE.INTER.POLAR>
0

>  <SCORE.INTER.ROT>
8

>  <SCORE.INTER.SOLV>
9.47311

>  <SCORE.INTER.VDW>
-22.2694

>  <SCORE.INTER.norm>
-0.587216

>  <SCORE.INTRA>
-7.43283

>  <SCORE.INTRA.DIHEDRAL>
-9.25434

>  <SCORE.INTRA.DIHEDRAL.0>
16.4846

>  <SCORE.INTRA.POLAR>
0

>  <SCORE.INTRA.POLAR.0>
0

>  <SCORE.INTRA.REPUL>
0

>  <SCORE.INTRA.REPUL.0>
0

>  <SCORE.INTRA.SOLV>
2.89373

>  <SCORE.INTRA.SOLV.lig_0>
-82.6983

>  <SCORE.INTRA.VDW>
-4.25253

>  <SCORE.INTRA.VDW.0>
-2.11466

>  <SCORE.INTRA.norm>
-0.285878

>  <SCORE.RESTR>
0

>  <SCORE.RESTR.CAVITY>
0

>  <SCORE.RESTR.norm>
0

>  <SCORE.SYSTEM>
0

>  <SCORE.SYSTEM.CONST>
0

>  <SCORE.SYSTEM.DIHEDRAL>
0

>  <SCORE.SYSTEM.SOLV>
0

>  <SCORE.SYSTEM.norm>
0

>  <SCORE.heavy>
26

>  <SCORE.norm>
-0.873094

>  <RMSD>
7.545

$$$$
ligand
 OpenBabel11021811423D
libRbt.so/2013.1/901 2013/11/27
 26 27  0  0  0  0  0  0  0  0999 V2000
   -4.0878  -14.9817  -98.1700 C   0  0  0  0  0  0  0  0  0  0  0  0
    1.6020  -17.6553  -98.0342 C   0  0  0  0  0  0  0  0  0  0  0  0
    2.2533  -14.6028 -100.3890 P   0  0  2  0  0  0  0  0  0  0  0  0
    3.9629  -13.6804  -98.4149 P   0  0  2  0  0  0  0  0  0  0  0  0
   -0.8131  -19.6847  -98.0197 C   0  0  0  0  0  0  0  0  0  0  0  0
   -1.3597  -17.3610  -97.3400 C   0  0  0  0  0  0  0  0  0  0  0  0
   -1.7165  -18.4849  -98.0738 C   0  0  0  0  0  0  0  0  0  0  0  0
   -2.8646  -18.4342  -98.8699 C   0  0  0  0  0  0  0  0  0  0  0  0
   -3.2978  -19.4435  -99.6257 N   0  0  0  0  0  0  0  0  0  0  0  0
   -3.6126  -17.2854  -98.8865 N   0  0  0  0  0  0  0  0  0  0  0  0
   -3.2469  -16.2020  -98.1383 C   0  0  0  0  0  0  0  0  0  0  0  0
   -2.1290  -16.2176  -97.3672 N   0  0  0  0  0  0  0  0  0  0  0  0
    3.2186  -13.8320 -101.2678 O   0  5  0  0  0  0  0  0  0  0  0  0
    4.9180  -14.7237  -98.9497 O   0  0  0  0  0  0  0  0  0  0  0  0
    1.7275  -20.2760 -100.9462 S   0  0  0  0  0  0  0  0  0  0  0  0
    0.4215  -20.5245 -100.0035 C   0  0  0  0  0  0  0  0  0  0  0  0
    0.8662  -14.3951 -100.9910 O   0  0  0  0  0  0  0  0  0  0  0  0
    3.9693  -13.6358  -96.9004 O   0  5  0  0  0  0  0  0  0  0  0  0
    0.2978  -19.6499  -98.9406 N   0  0  0  0  0  0  0  0  0  0  0  0
    2.4986  -14.1166  -98.8693 O   0  0  0  0  0  0  0  0  0  0  0  0
    4.3586  -12.3356  -98.9901 O   0  0  0  0  0  0  0  0  0  0  0  0
    1.3499  -18.7681  -98.9722 C   0  0  1  0  0  0  0  0  0  0  0  0
    2.1984  -19.0347 -100.0583 C   0  0  2  0  0  0  0  0  0  0  0  0
    3.4625  -18.4146 -100.6005 C   0  0  0  0  0  0  0  0  0  0  0  0
    3.1908  -17.0316 -101.2020 C   0  0  0  0  0  0  0  0  0  0  0  0
    2.8523  -16.1218 -100.1625 O   0  0  0  0  0  0  0  0  0  0  0  0
  1 11  1  0  0  0  0
  3 13  1  6  0  0  0
  3 17  2  0  0  0  0
  3 20  1  0  0  0  0
  3 26  1  0  0  0  0
  4 14  1  6  0  0  0
  4 18  1  0  0  0  0
  4 21  2  0  0  0  0
  4 20  1  0  0  0  0
  5 19  1  0  0  0  0
  5  7  1  0  0  0  0
  6  7  2  0  0  0  0
  6 12  1  0  0  0  0
  7  8  1  0  0  0  0
  8  9  1  0  0  0  0
  8 10  2  0  0  0  0
 10 11  1  0  0  0  0
 11 12  2  0  0  0  0
 15 23  1  0  0  0  0
 15 16  1  0  0  0  0
 16 19  1  0  0  0  0
 19 22  1  0  0  0  0
 22  2  1  6  0  0  0
 22 23  1  0  0  0  0
 23 24  1  6  0  0  0
 24 25  1  0  0  0  0
 25 26  1  0  0  0  0
M  CHG  2  13  -1  18  -1
M  END
>  <CHROM.1>
-32.27589876,-113.41446725,-84.33903795,-45.23916997,110.08904451,68.63487629
-169.59346449,-56.12237314,1.12431839,-16.59398970,-99.27470825,2.50829806
-0.27807048,-2.87568528

>  <Name>
ligand

>  <RI>
0

>  <Rbt.Current_Directory>
/home/itssahil/PROJECTS/Mol_Feturizer/New_Systems/rnas/2CKY

>  <Rbt.Executable>
rbdock ($Id: //depot/dev/client3/rdock/2013.1/src/exe/rbdock.cxx#4 $)

>  <Rbt.Library>
libRbt.so (2013.1, Build901 2013/11/27)

>  <Rbt.Parameter_File>
/export/apps/rDock/src/rDock_2013.1_src/data/scripts/dock_solv.prm

>  <Rbt.Receptor>
prm/pocket_docking_7.prm

>  <SCORE>
-15.6439

>  <SCORE.INTER>
-9.42521

>  <SCORE.INTER.CONST>
1

>  <SCORE.INTER.POLAR>
0

>  <SCORE.INTER.ROT>
8

>  <SCORE.INTER.SOLV>
13.8445

>  <SCORE.INTER.VDW>
-19.8316

>  <SCORE.INTER.norm>
-0.362508

>  <SCORE.INTRA>
-6.2187

>  <SCORE.INTRA.DIHEDRAL>
-9.89823

>  <SCORE.INTRA.DIHEDRAL.0>
16.4846

>  <SCORE.INTRA.POLAR>
0

>  <SCORE.INTRA.POLAR.0>
0

>  <SCORE.INTRA.REPUL>
0

>  <SCORE.INTRA.REPUL.0>
0

>  <SCORE.INTRA.SOLV>
0.465645

>  <SCORE.INTRA.SOLV.lig_0>
-82.6983

>  <SCORE.INTRA.VDW>
-1.50241

>  <SCORE.INTRA.VDW.0>
-2.11466

>  <SCORE.INTRA.norm>
-0.239181

>  <SCORE.RESTR>
0

>  <SCORE.RESTR.CAVITY>
0

>  <SCORE.RESTR.norm>
0

>  <SCORE.SYSTEM>
0

>  <SCORE.SYSTEM.CONST>
0

>  <SCORE.SYSTEM.DIHEDRAL>
0

>  <SCORE.SYSTEM.SOLV>
0

>  <SCORE.SYSTEM.norm>
0

>  <SCORE.heavy>
26

>  <SCORE.norm>
-0.601689

>  <RMSD>
7.555

$$$$
ligand
 OpenBabel11021811423D
libRbt.so/2013.1/901 2013/11/27
 26 27  0  0  0  0  0  0  0  0999 V2000
    0.1293  -11.7091  -92.1266 C   0  0  0  0  0  0  0  0  0  0  0  0
   -0.3558  -12.8973  -99.5218 C   0  0  0  0  0  0  0  0  0  0  0  0
   -1.3113  -18.1552  -97.9792 P   0  0  2  0  0  0  0  0  0  0  0  0
    0.0665  -18.0382  -95.5795 P   0  0  2  0  0  0  0  0  0  0  0  0
   -1.6995  -10.8858  -97.4972 C   0  0  0  0  0  0  0  0  0  0  0  0
   -2.0524  -11.5324  -95.1270 C   0  0  0  0  0  0  0  0  0  0  0  0
   -1.1781  -11.0631  -96.0988 C   0  0  0  0  0  0  0  0  0  0  0  0
    0.1553  -10.8291  -95.7502 C   0  0  0  0  0  0  0  0  0  0  0  0
    1.0862  -10.3919  -96.5989 N   0  0  0  0  0  0  0  0  0  0  0  0
    0.5540  -11.0507  -94.4574 N   0  0  0  0  0  0  0  0  0  0  0  0
   -0.3340  -11.4941  -93.5182 C   0  0  0  0  0  0  0  0  0  0  0  0
   -1.6318  -11.7438  -93.8314 N   0  0  0  0  0  0  0  0  0  0  0  0
   -2.3664  -19.0041  -97.2977 O   0  5  0  0  0  0  0  0  0  0  0  0
    0.7376  -19.2842  -96.1119 O   0  0  0  0  0  0  0  0  0  0  0  0
   -4.0666  -13.7960  -98.6355 S   0  0  0  0  0  0  0  0  0  0  0  0
   -3.5913  -12.4578  -97.8359 C   0  0  0  0  0  0  0  0  0  0  0  0
   -0.4577  -19.1139  -98.8052 O   0  0  0  0  0  0  0  0  0  0  0  0
   -1.0608  -18.3714  -94.6236 O   0  5  0  0  0  0  0  0  0  0  0  0
   -2.2880  -12.0679  -98.0799 N   0  0  0  0  0  0  0  0  0  0  0  0
   -0.5792  -17.2895  -96.8300 O   0  0  0  0  0  0  0  0  0  0  0  0
    1.1171  -17.1906  -94.8912 O   0  0  0  0  0  0  0  0  0  0  0  0
   -1.7258  -12.9474  -98.9720 C   0  0  1  0  0  0  0  0  0  0  0  0
   -2.6427  -13.9432  -99.3437 C   0  0  2  0  0  0  0  0  0  0  0  0
   -2.6070  -15.1318 -100.2724 C   0  0  0  0  0  0  0  0  0  0  0  0
   -1.5640  -16.1599  -99.8214 C   0  0  0  0  0  0  0  0  0  0  0  0
   -2.0559  -16.8677  -98.6901 O   0  0  0  0  0  0  0  0  0  0  0  0
  1 11  1  0  0  0  0
  3 13  1  1  0  0  0
  3 17  2  0  0  0  0
  3 20  1  0  0  0  0
  3 26  1  0  0  0  0
  4 14  1  6  0  0  0
  4 18  1  0  0  0  0
  4 21  2  0  0  0  0
  4 20  1  0  0  0  0
  5 19  1  0  0  0  0
  5  7  1  0  0  0  0
  6  7  2  0  0  0  0
  6 12  1  0  0  0  0
  7  8  1  0  0  0  0
  8  9  1  0  0  0  0
  8 10  2  0  0  0  0
 10 11  1  0  0  0  0
 11 12  2  0  0  0  0
 15 23  1  0  0  0  0
 15 16  1  0  0  0  0
 16 19  1  0  0  0  0
 19 22  1  0  0  0  0
 22  2  1  6  0  0  0
 22 23  1  0  0  0  0
 23 24  1  6  0  0  0
 24 25  1  0  0  0  0
 25 26  1  0  0  0  0
M  CHG  2  13  -1  18  -1
M  END
>  <CHROM.1>
54.89580918,82.50815490,-55.79170470,40.54287617,-117.84927728,75.04763352
173.94623714,-153.56835311,-1.19018063,-14.83485563,-96.92611415,-1.60520043
1.04785086,-2.90651275

>  <Name>
ligand

>  <RI>
0

>  <Rbt.Current_Directory>
/home/itssahil/PROJECTS/Mol_Feturizer/New_Systems/rnas/2CKY

>  <Rbt.Executable>
rbdock ($Id: //depot/dev/client3/rdock/2013.1/src/exe/rbdock.cxx#4 $)

>  <Rbt.Library>
libRbt.so (2013.1, Build901 2013/11/27)

>  <Rbt.Parameter_File>
/export/apps/rDock/src/rDock_2013.1_src/data/scripts/dock_solv.prm

>  <Rbt.Receptor>
prm/pocket_docking_8.prm

>  <SCORE>
-19.2109

>  <SCORE.INTER>
-13.2174

>  <SCORE.INTER.CONST>
1

>  <SCORE.INTER.POLAR>
0

>  <SCORE.INTER.ROT>
8

>  <SCORE.INTER.SOLV>
9.23198

>  <SCORE.INTER.VDW>
-20.8223

>  <SCORE.INTER.norm>
-0.508361

>  <SCORE.INTRA>
-5.99347

>  <SCORE.INTRA.DIHEDRAL>
-8.86449

>  <SCORE.INTRA.DIHEDRAL.0>
16.4846

>  <SCORE.INTRA.POLAR>
0

>  <SCORE.INTRA.POLAR.0>
0

>  <SCORE.INTRA.REPUL>
0

>  <SCORE.INTRA.REPUL.0>
0

>  <SCORE.INTRA.SOLV>
0.331596

>  <SCORE.INTRA.SOLV.lig_0>
-82.6983

>  <SCORE.INTRA.VDW>
-1.72702

>  <SCORE.INTRA.VDW.0>
-2.11466

>  <SCORE.INTRA.norm>
-0.230518

>  <SCORE.RESTR>
0

>  <SCORE.RESTR.CAVITY>
0

>  <SCORE.RESTR.norm>
0

>  <SCORE.SYSTEM>
0

>  <SCORE.SYSTEM.CONST>
0

>  <SCORE.SYSTEM.DIHEDRAL>
0

>  <SCORE.SYSTEM.SOLV>
0

>  <SCORE.SYSTEM.norm>
0

>  <SCORE.heavy>
26

>  <SCORE.norm>
-0.73888

>  <RMSD>
7.596

$$$$
ligand
 OpenBabel11021811423D
libRbt.so/2013.1/901 2013/11/27
 26 27  0  0  0  0  0  0  0  0999 V2000
   -0.4367  -19.7791  -95.9789 C   0  0  0  0  0  0  0  0  0  0  0  0
   -3.2723  -14.9046  -96.1730 C   0  0  0  0  0  0  0  0  0  0  0  0
    0.7421  -12.2556  -94.3172 P   0  0  2  0  0  0  0  0  0  0  0  0
    3.3610  -11.7466  -95.0608 P   0  0  2  0  0  0  0  0  0  0  0  0
   -2.7953  -15.6630  -99.1977 C   0  0  0  0  0  0  0  0  0  0  0  0
   -1.0670  -16.5139  -97.6326 C   0  0  0  0  0  0  0  0  0  0  0  0
   -2.2010  -16.7815  -98.3886 C   0  0  0  0  0  0  0  0  0  0  0  0
   -2.7702  -18.0566  -98.3228 C   0  0  0  0  0  0  0  0  0  0  0  0
   -3.8632  -18.4249  -98.9916 N   0  0  0  0  0  0  0  0  0  0  0  0
   -2.1813  -19.0081  -97.5308 N   0  0  0  0  0  0  0  0  0  0  0  0
   -1.0543  -18.7210  -96.8135 C   0  0  0  0  0  0  0  0  0  0  0  0
   -0.4879  -17.4870  -96.8466 N   0  0  0  0  0  0  0  0  0  0  0  0
    0.7621  -11.2857  -93.1523 O   0  5  0  0  0  0  0  0  0  0  0  0
    3.7256  -13.1911  -94.8016 O   0  0  0  0  0  0  0  0  0  0  0  0
   -2.3748  -11.8389  -98.4443 S   0  0  0  0  0  0  0  0  0  0  0  0
   -2.3923  -13.2159  -99.3160 C   0  0  0  0  0  0  0  0  0  0  0  0
    0.9685  -13.6434  -93.7234 O   0  0  0  0  0  0  0  0  0  0  0  0
    3.5656  -10.8857  -93.8310 O   0  5  0  0  0  0  0  0  0  0  0  0
   -2.6917  -14.3559  -98.5943 N   0  0  0  0  0  0  0  0  0  0  0  0
    1.8050  -11.7165  -95.4060 O   0  0  0  0  0  0  0  0  0  0  0  0
    4.2076  -11.2428  -96.2120 O   0  0  0  0  0  0  0  0  0  0  0  0
   -2.9082  -14.0032  -97.2850 C   0  0  1  0  0  0  0  0  0  0  0  0
   -2.7590  -12.6191  -97.1048 C   0  0  2  0  0  0  0  0  0  0  0  0
   -2.8850  -11.6772  -95.9328 C   0  0  0  0  0  0  0  0  0  0  0  0
   -1.9368  -12.0728  -94.7958 C   0  0  0  0  0  0  0  0  0  0  0  0
   -0.5905  -11.9417  -95.2354 O   0  0  0  0  0  0  0  0  0  0  0  0
  1 11  1  0  0  0  0
  3 13  1  1  0  0  0
  3 17  2  0  0  0  0
  3 20  1  0  0  0  0
  3 26  1  0  0  0  0
  4 14  1  1  0  0  0
  4 18  1  0  0  0  0
  4 21  2  0  0  0  0
  4 20  1  0  0  0  0
  5 19  1  0  0  0  0
  5  7  1  0  0  0  0
  6  7  2  0  0  0  0
  6 12  1  0  0  0  0
  7  8  1  0  0  0  0
  8  9  1  0  0  0  0
  8 10  2  0  0  0  0
 10 11  1  0  0  0  0
 11 12  2  0  0  0  0
 15 23  1  0  0  0  0
 15 16  1  0  0  0  0
 16 19  1  0  0  0  0
 19 22  1  0  0  0  0
 22  2  1  6  0  0  0
 22 23  1  0  0  0  0
 23 24  1  6  0  0  0
 24 25  1  0  0  0  0
 25 26  1  0  0  0  0
M  CHG  2  13  -1  18  -1
M  END
>  <CHROM.1>
67.96937079,139.69354108,-34.46550403,59.89194794,-122.54783961,64.19255758
179.48588508,-63.31407318,-0.45844815,-13.93931953,-96.33062046,-2.34165235
-0.52365603,0.09482766

>  <Name>
ligand

>  <RI>
0

>  <Rbt.Current_Directory>
/home/itssahil/PROJECTS/Mol_Feturizer/New_Systems/rnas/2CKY

>  <Rbt.Executable>
rbdock ($Id: //depot/dev/client3/rdock/2013.1/src/exe/rbdock.cxx#4 $)

>  <Rbt.Library>
libRbt.so (2013.1, Build901 2013/11/27)

>  <Rbt.Parameter_File>
/export/apps/rDock/src/rDock_2013.1_src/data/scripts/dock_solv.prm

>  <Rbt.Receptor>
prm/pocket_docking_8.prm

>  <SCORE>
-15.3081

>  <SCORE.INTER>
-8.55574

>  <SCORE.INTER.CONST>
1

>  <SCORE.INTER.POLAR>
0

>  <SCORE.INTER.ROT>
8

>  <SCORE.INTER.SOLV>
10.2576

>  <SCORE.INTER.VDW>
-18.0564

>  <SCORE.INTER.norm>
-0.329067

>  <SCORE.INTRA>
-6.75238

>  <SCORE.INTRA.DIHEDRAL>
-11.7136

>  <SCORE.INTRA.DIHEDRAL.0>
16.4846

>  <SCORE.INTRA.POLAR>
0

>  <SCORE.INTRA.POLAR.0>
0

>  <SCORE.INTRA.REPUL>
0

>  <SCORE.INTRA.REPUL.0>
0

>  <SCORE.INTRA.SOLV>
0.476694

>  <SCORE.INTRA.SOLV.lig_0>
-82.6983

>  <SCORE.INTRA.VDW>
-1.13393

>  <SCORE.INTRA.VDW.0>
-2.11466

>  <SCORE.INTRA.norm>
-0.259707

>  <SCORE.RESTR>
0

>  <SCORE.RESTR.CAVITY>
0

>  <SCORE.RESTR.norm>
0

>  <SCORE.SYSTEM>
0

>  <SCORE.SYSTEM.CONST>
0

>  <SCORE.SYSTEM.DIHEDRAL>
0

>  <SCORE.SYSTEM.SOLV>
0

>  <SCORE.SYSTEM.norm>
0

>  <SCORE.heavy>
26

>  <SCORE.norm>
-0.588774

>  <RMSD>
7.616

$$$$
ligand
 OpenBabel11021811423D
libRbt.so/2013.1/901 2013/11/27
 26 27  0  0  0  0  0  0  0  0999 V2000
    3.4577  -13.4112  -94.6502 C   0  0  0  0  0  0  0  0  0  0  0  0
   -2.6632  -15.3526  -95.4883 C   0  0  0  0  0  0  0  0  0  0  0  0
   -2.4962  -19.4490  -99.3577 P   0  0  2  0  0  0  0  0  0  0  0  0
   -1.9098  -21.3138  -97.3958 P   0  0  2  0  0  0  0  0  0  0  0  0
   -2.1226  -12.2525  -95.2691 C   0  0  0  0  0  0  0  0  0  0  0  0
   -0.2296  -13.4572  -94.2083 C   0  0  0  0  0  0  0  0  0  0  0  0
   -0.6476  -12.5037  -95.1275 C   0  0  0  0  0  0  0  0  0  0  0  0
    0.3112  -11.8611  -95.9162 C   0  0  0  0  0  0  0  0  0  0  0  0
    0.0285  -10.9406  -96.8384 N   0  0  0  0  0  0  0  0  0  0  0  0
    1.6342  -12.1769  -95.7447 N   0  0  0  0  0  0  0  0  0  0  0  0
    2.0169  -13.1055  -94.8181 C   0  0  0  0  0  0  0  0  0  0  0  0
    1.1065  -13.7561  -94.0483 N   0  0  0  0  0  0  0  0  0  0  0  0
   -3.2450  -20.3405 -100.3285 O   0  5  0  0  0  0  0  0  0  0  0  0
   -0.4704  -20.8705  -97.2599 O   0  0  0  0  0  0  0  0  0  0  0  0
   -3.8330  -13.3224  -98.6305 S   0  0  0  0  0  0  0  0  0  0  0  0
   -3.1906  -12.3291  -97.5093 C   0  0  0  0  0  0  0  0  0  0  0  0
   -1.0594  -19.3721  -99.8672 O   0  0  0  0  0  0  0  0  0  0  0  0
   -2.0707  -22.3843  -98.4558 O   0  5  0  0  0  0  0  0  0  0  0  0
   -2.7566  -12.9575  -96.3574 N   0  0  0  0  0  0  0  0  0  0  0  0
   -2.7425  -20.0425  -97.8768 O   0  0  0  0  0  0  0  0  0  0  0  0
   -2.3787  -21.8227  -96.0478 O   0  0  0  0  0  0  0  0  0  0  0  0
   -2.9886  -14.3055  -96.4780 C   0  0  1  0  0  0  0  0  0  0  0  0
   -3.5818  -14.6062  -97.7142 C   0  0  2  0  0  0  0  0  0  0  0  0
   -4.0377  -15.8716  -98.3979 C   0  0  0  0  0  0  0  0  0  0  0  0
   -2.8999  -16.8936  -98.4940 C   0  0  0  0  0  0  0  0  0  0  0  0
   -3.3787  -18.0768  -99.1216 O   0  0  0  0  0  0  0  0  0  0  0  0
  1 11  1  0  0  0  0
  3 13  1  6  0  0  0
  3 17  2  0  0  0  0
  3 20  1  0  0  0  0
  3 26  1  0  0  0  0
  4 14  1  1  0  0  0
  4 18  1  0  0  0  0
  4 21  2  0  0  0  0
  4 20  1  0  0  0  0
  5 19  1  0  0  0  0
  5  7  1  0  0  0  0
  6  7  2  0  0  0  0
  6 12  1  0  0  0  0
  7  8  1  0  0  0  0
  8  9  1  0  0  0  0
  8 10  2  0  0  0  0
 10 11  1  0  0  0  0
 11 12  2  0  0  0  0
 15 23  1  0  0  0  0
 15 16  1  0  0  0  0
 16 19  1  0  0  0  0
 19 22  1  0  0  0  0
 22  2  1  6  0  0  0
 22 23  1  0  0  0  0
 23 24  1  6  0  0  0
 24 25  1  0  0  0  0
 25 26  1  0  0  0  0
M  CHG  2  13  -1  18  -1
M  END
>  <CHROM.1>
78.72235482,-107.89849380,-96.98355710,67.94959683,123.91550127,178.95505960
-177.02209542,-166.97545707,-1.72059383,-16.36575057,-97.23453287,-1.29823246
0.61122933,-2.98735219

>  <Name>
ligand

>  <RI>
0

>  <Rbt.Current_Directory>
/home/itssahil/PROJECTS/Mol_Feturizer/New_Systems/rnas/2CKY

>  <Rbt.Executable>
rbdock ($Id: //depot/dev/client3/rdock/2013.1/src/exe/rbdock.cxx#4 $)

>  <Rbt.Library>
libRbt.so (2013.1, Build901 2013/11/27)

>  <Rbt.Parameter_File>
/export/apps/rDock/src/rDock_2013.1_src/data/scripts/dock_solv.prm

>  <Rbt.Receptor>
prm/pocket_docking_7.prm

>  <SCORE>
-20.2084

>  <SCORE.INTER>
-13.5486

>  <SCORE.INTER.CONST>
1

>  <SCORE.INTER.POLAR>
0

>  <SCORE.INTER.ROT>
8

>  <SCORE.INTER.SOLV>
11.6233

>  <SCORE.INTER.VDW>
-21.8402

>  <SCORE.INTER.norm>
-0.521101

>  <SCORE.INTRA>
-6.65973

>  <SCORE.INTRA.DIHEDRAL>
-11.0422

>  <SCORE.INTRA.DIHEDRAL.0>
16.4846

>  <SCORE.INTRA.POLAR>
0

>  <SCORE.INTRA.POLAR.0>
0

>  <SCORE.INTRA.REPUL>
0

>  <SCORE.INTRA.REPUL.0>
0

>  <SCORE.INTRA.SOLV>
0.989815

>  <SCORE.INTRA.SOLV.lig_0>
-82.6983

>  <SCORE.INTRA.VDW>
-1.63351

>  <SCORE.INTRA.VDW.0>
-2.11466

>  <SCORE.INTRA.norm>
-0.256143

>  <SCORE.RESTR>
0

>  <SCORE.RESTR.CAVITY>
0

>  <SCORE.RESTR.norm>
0

>  <SCORE.SYSTEM>
0

>  <SCORE.SYSTEM.CONST>
0

>  <SCORE.SYSTEM.DIHEDRAL>
0

>  <SCORE.SYSTEM.SOLV>
0

>  <SCORE.SYSTEM.norm>
0

>  <SCORE.heavy>
26

>  <SCORE.norm>
-0.777244

>  <RMSD>
7.649

$$$$
ligand
 OpenBabel11021811423D
libRbt.so/2013.1/901 2013/11/27
 26 27  0  0  0  0  0  0  0  0999 V2000
   -2.2905  -20.0011  -97.9983 C   0  0  0  0  0  0  0  0  0  0  0  0
   -1.5465  -14.7505 -100.2035 C   0  0  0  0  0  0  0  0  0  0  0  0
    2.9652  -13.8403  -97.4815 P   0  0  2  0  0  0  0  0  0  0  0  0
    3.8273  -11.7858  -95.8364 P   0  0  2  0  0  0  0  0  0  0  0  0
   -4.0942  -14.5709  -98.3519 C   0  0  0  0  0  0  0  0  0  0  0  0
   -4.1913  -16.9679  -98.9884 C   0  0  0  0  0  0  0  0  0  0  0  0
   -3.6019  -15.9834  -98.2060 C   0  0  0  0  0  0  0  0  0  0  0  0
   -2.5453  -16.3357  -97.3612 C   0  0  0  0  0  0  0  0  0  0  0  0
   -1.8953  -15.4766  -96.5755 N   0  0  0  0  0  0  0  0  0  0  0  0
   -2.1369  -17.6436  -97.3162 N   0  0  0  0  0  0  0  0  0  0  0  0
   -2.7494  -18.5941  -98.0835 C   0  0  0  0  0  0  0  0  0  0  0  0
   -3.7685  -18.2783  -98.9240 N   0  0  0  0  0  0  0  0  0  0  0  0
    2.4683  -15.2550  -97.2584 O   0  5  0  0  0  0  0  0  0  0  0  0
    5.2713  -12.1972  -96.0159 O   0  0  0  0  0  0  0  0  0  0  0  0
   -1.7478  -11.4392  -98.1158 S   0  0  0  0  0  0  0  0  0  0  0  0
   -3.0370  -12.3896  -97.8141 C   0  0  0  0  0  0  0  0  0  0  0  0
    4.3052  -13.9653  -98.2018 O   0  0  0  0  0  0  0  0  0  0  0  0
    3.5560  -11.2836  -94.4329 O   0  5  0  0  0  0  0  0  0  0  0  0
   -3.0570  -13.5805  -98.5152 N   0  0  0  0  0  0  0  0  0  0  0  0
    2.9429  -13.0948  -96.0499 O   0  0  0  0  0  0  0  0  0  0  0  0
    3.5091  -10.7131  -96.8580 O   0  0  0  0  0  0  0  0  0  0  0  0
   -1.9350  -13.6450  -99.3041 C   0  0  1  0  0  0  0  0  0  0  0  0
   -1.1409  -12.4984  -99.1457 C   0  0  2  0  0  0  0  0  0  0  0  0
    0.1724  -12.0241  -99.7174 C   0  0  0  0  0  0  0  0  0  0  0  0
    1.2859  -13.0497  -99.4801 C   0  0  0  0  0  0  0  0  0  0  0  0
    1.7392  -12.9532  -98.1354 O   0  0  0  0  0  0  0  0  0  0  0  0
  1 11  1  0  0  0  0
  3 13  1  1  0  0  0
  3 17  2  0  0  0  0
  3 20  1  0  0  0  0
  3 26  1  0  0  0  0
  4 14  1  6  0  0  0
  4 18  1  0  0  0  0
  4 21  2  0  0  0  0
  4 20  1  0  0  0  0
  5 19  1  0  0  0  0
  5  7  1  0  0  0  0
  6  7  2  0  0  0  0
  6 12  1  0  0  0  0
  7  8  1  0  0  0  0
  8  9  1  0  0  0  0
  8 10  2  0  0  0  0
 10 11  1  0  0  0  0
 11 12  2  0  0  0  0
 15 23  1  0  0  0  0
 15 16  1  0  0  0  0
 16 19  1  0  0  0  0
 19 22  1  0  0  0  0
 22  2  1  1  0  0  0
 22 23  1  0  0  0  0
 23 24  1  1  0  0  0
 24 25  1  0  0  0  0
 25 26  1  0  0  0  0
M  CHG  2  13  -1  18  -1
M  END
>  <CHROM.1>
160.20979763,-133.81780309,-131.41776468,-62.38688187,124.17502754,-78.15185749
-177.69179355,-74.21729263,0.13784741,-14.00734416,-97.72328527,-2.61002241
-0.32329479,-0.09155514

>  <Name>
ligand

>  <RI>
0

>  <Rbt.Current_Directory>
/home/itssahil/PROJECTS/Mol_Feturizer/New_Systems/rnas/2CKY

>  <Rbt.Executable>
rbdock ($Id: //depot/dev/client3/rdock/2013.1/src/exe/rbdock.cxx#4 $)

>  <Rbt.Library>
libRbt.so (2013.1, Build901 2013/11/27)

>  <Rbt.Parameter_File>
/export/apps/rDock/src/rDock_2013.1_src/data/scripts/dock_solv.prm

>  <Rbt.Receptor>
prm/pocket_docking_7.prm

>  <SCORE>
-17.3512

>  <SCORE.INTER>
-11.5931

>  <SCORE.INTER.CONST>
1

>  <SCORE.INTER.POLAR>
0

>  <SCORE.INTER.ROT>
8

>  <SCORE.INTER.SOLV>
6.21563

>  <SCORE.INTER.VDW>
-18.734

>  <SCORE.INTER.norm>
-0.44589

>  <SCORE.INTRA>
-5.75812

>  <SCORE.INTRA.DIHEDRAL>
-9.63623

>  <SCORE.INTRA.DIHEDRAL.0>
16.4846

>  <SCORE.INTRA.POLAR>
0

>  <SCORE.INTRA.POLAR.0>
0

>  <SCORE.INTRA.REPUL>
0

>  <SCORE.INTRA.REPUL.0>
0

>  <SCORE.INTRA.SOLV>
2.53993

>  <SCORE.INTRA.SOLV.lig_0>
-82.6983

>  <SCORE.INTRA.VDW>
-2.20997

>  <SCORE.INTRA.VDW.0>
-2.11466

>  <SCORE.INTRA.norm>
-0.221466

>  <SCORE.RESTR>
0

>  <SCORE.RESTR.CAVITY>
0

>  <SCORE.RESTR.norm>
0

>  <SCORE.SYSTEM>
0

>  <SCORE.SYSTEM.CONST>
0

>  <SCORE.SYSTEM.DIHEDRAL>
0

>  <SCORE.SYSTEM.SOLV>
0

>  <SCORE.SYSTEM.norm>
0

>  <SCORE.heavy>
26

>  <SCORE.norm>
-0.667356

>  <RMSD>
7.691

$$$$
ligand
 OpenBabel11021811423D
libRbt.so/2013.1/901 2013/11/27
 26 27  0  0  0  0  0  0  0  0999 V2000
    2.1337  -19.6655 -100.7913 C   0  0  0  0  0  0  0  0  0  0  0  0
   -2.4812  -15.4381  -96.2513 C   0  0  0  0  0  0  0  0  0  0  0  0
    0.5107  -11.8267  -98.5575 P   0  0  2  0  0  0  0  0  0  0  0  0
    0.5291  -13.9806 -100.2984 P   0  0  2  0  0  0  0  0  0  0  0  0
   -2.6985  -17.7898  -98.3426 C   0  0  0  0  0  0  0  0  0  0  0  0
   -0.7932  -17.5538  -99.9157 C   0  0  0  0  0  0  0  0  0  0  0  0
   -1.4481  -18.3356  -98.9729 C   0  0  0  0  0  0  0  0  0  0  0  0
   -0.8906  -19.5658  -98.6121 C   0  0  0  0  0  0  0  0  0  0  0  0
   -1.4211  -20.3938  -97.7116 N   0  0  0  0  0  0  0  0  0  0  0  0
    0.2730  -19.9710  -99.2131 N   0  0  0  0  0  0  0  0  0  0  0  0
    0.8842  -19.1886 -100.1520 C   0  0  0  0  0  0  0  0  0  0  0  0
    0.3735  -17.9826 -100.5115 N   0  0  0  0  0  0  0  0  0  0  0  0
    0.4855  -10.3155  -98.6747 O   0  5  0  0  0  0  0  0  0  0  0  0
    0.0790  -14.2644 -101.7138 O   0  0  0  0  0  0  0  0  0  0  0  0
   -3.5892  -14.2718  -99.8256 S   0  0  0  0  0  0  0  0  0  0  0  0
   -3.3361  -15.8816  -99.7977 C   0  0  0  0  0  0  0  0  0  0  0  0
    1.8023  -12.1782  -97.8241 O   0  0  0  0  0  0  0  0  0  0  0  0
   -0.3048  -14.7333  -99.2816 O   0  5  0  0  0  0  0  0  0  0  0  0
   -2.9319  -16.3845  -98.5755 N   0  0  0  0  0  0  0  0  0  0  0  0
    0.2972  -12.4245 -100.0418 O   0  0  0  0  0  0  0  0  0  0  0  0
    1.9901  -14.3639 -100.1792 O   0  0  0  0  0  0  0  0  0  0  0  0
   -2.8561  -15.3487  -97.6772 C   0  0  1  0  0  0  0  0  0  0  0  0
   -3.2093  -14.1316  -98.2806 C   0  0  2  0  0  0  0  0  0  0  0  0
   -3.3260  -12.7029  -97.8098 C   0  0  0  0  0  0  0  0  0  0  0  0
   -2.2121  -11.8300  -98.3975 C   0  0  0  0  0  0  0  0  0  0  0  0
   -0.9483  -12.3300  -97.9782 O   0  0  0  0  0  0  0  0  0  0  0  0
  1 11  1  0  0  0  0
  3 13  1  6  0  0  0
  3 17  2  0  0  0  0
  3 20  1  0  0  0  0
  3 26  1  0  0  0  0
  4 14  1  6  0  0  0
  4 18  1  0  0  0  0
  4 21  2  0  0  0  0
  4 20  1  0  0  0  0
  5 19  1  0  0  0  0
  5  7  1  0  0  0  0
  6  7  2  0  0  0  0
  6 12  1  0  0  0  0
  7  8  1  0  0  0  0
  8  9  1  0  0  0  0
  8 10  2  0  0  0  0
 10 11  1  0  0  0  0
 11 12  2  0  0  0  0
 15 23  1  0  0  0  0
 15 16  1  0  0  0  0
 16 19  1  0  0  0  0
 19 22  1  0  0  0  0
 22  2  1  1  0  0  0
 22 23  1  0  0  0  0
 23 24  1  1  0  0  0
 24 25  1  0  0  0  0
 25 26  1  0  0  0  0
M  CHG  2  13  -1  18  -1
M  END
>  <CHROM.1>
169.28354809,72.87090175,-12.72057717,172.61482418,-71.06059015,-60.66123445
170.48576365,42.67404016,-0.81538383,-15.10114003,-99.12522783,-1.58670002
0.37073993,0.07803269

>  <Name>
ligand

>  <RI>
0

>  <Rbt.Current_Directory>
/home/itssahil/PROJECTS/Mol_Feturizer/New_Systems/rnas/2CKY

>  <Rbt.Executable>
rbdock ($Id: //depot/dev/client3/rdock/2013.1/src/exe/rbdock.cxx#4 $)

>  <Rbt.Library>
libRbt.so (2013.1, Build901 2013/11/27)

>  <Rbt.Parameter_File>
/export/apps/rDock/src/rDock_2013.1_src/data/scripts/dock_solv.prm

>  <Rbt.Receptor>
prm/pocket_docking_8.prm

>  <SCORE>
-17.9396

>  <SCORE.INTER>
-11.2832

>  <SCORE.INTER.CONST>
1

>  <SCORE.INTER.POLAR>
0

>  <SCORE.INTER.ROT>
8

>  <SCORE.INTER.SOLV>
8.58032

>  <SCORE.INTER.VDW>
-19.3155

>  <SCORE.INTER.norm>
-0.433967

>  <SCORE.INTRA>
-6.65649

>  <SCORE.INTRA.DIHEDRAL>
-10.0838

>  <SCORE.INTRA.DIHEDRAL.0>
16.4846

>  <SCORE.INTRA.POLAR>
0

>  <SCORE.INTRA.POLAR.0>
0

>  <SCORE.INTRA.REPUL>
0

>  <SCORE.INTRA.REPUL.0>
0

>  <SCORE.INTRA.SOLV>
4.09325

>  <SCORE.INTRA.SOLV.lig_0>
-82.6983

>  <SCORE.INTRA.VDW>
-3.6612

>  <SCORE.INTRA.VDW.0>
-2.11466

>  <SCORE.INTRA.norm>
-0.256019

>  <SCORE.RESTR>
0

>  <SCORE.RESTR.CAVITY>
0

>  <SCORE.RESTR.norm>
0

>  <SCORE.SYSTEM>
0

>  <SCORE.SYSTEM.CONST>
0

>  <SCORE.SYSTEM.DIHEDRAL>
0

>  <SCORE.SYSTEM.SOLV>
0

>  <SCORE.SYSTEM.norm>
0

>  <SCORE.heavy>
26

>  <SCORE.norm>
-0.689986

>  <RMSD>
7.733

$$$$
ligand
 OpenBabel11021811423D
libRbt.so/2013.1/901 2013/11/27
 26 27  0  0  0  0  0  0  0  0999 V2000
    0.1409  -11.5949  -92.1469 C   0  0  0  0  0  0  0  0  0  0  0  0
   -0.2983  -12.8990  -99.4728 C   0  0  0  0  0  0  0  0  0  0  0  0
    0.1577  -18.1981  -99.6187 P   0  0  2  0  0  0  0  0  0  0  0  0
   -1.2459  -19.9526  -97.9993 P   0  0  2  0  0  0  0  0  0  0  0  0
   -1.7426  -10.8905  -97.5154 C   0  0  0  0  0  0  0  0  0  0  0  0
   -2.0082  -11.6724  -95.1748 C   0  0  0  0  0  0  0  0  0  0  0  0
   -1.2138  -11.0300  -96.1155 C   0  0  0  0  0  0  0  0  0  0  0  0
    0.0586  -10.5915  -95.7374 C   0  0  0  0  0  0  0  0  0  0  0  0
    0.9130   -9.9758  -96.5552 N   0  0  0  0  0  0  0  0  0  0  0  0
    0.4749  -10.7910  -94.4466 N   0  0  0  0  0  0  0  0  0  0  0  0
   -0.3371  -11.4090  -93.5377 C   0  0  0  0  0  0  0  0  0  0  0  0
   -1.5721  -11.8583  -93.8805 N   0  0  0  0  0  0  0  0  0  0  0  0
    0.8607  -18.2926 -100.9584 O   0  5  0  0  0  0  0  0  0  0  0  0
   -0.0232  -20.2876  -97.1751 O   0  0  0  0  0  0  0  0  0  0  0  0
   -3.9947  -13.8977  -98.6350 S   0  0  0  0  0  0  0  0  0  0  0  0
   -3.5771  -12.5289  -97.8552 C   0  0  0  0  0  0  0  0  0  0  0  0
    1.2445  -17.9234  -98.5827 O   0  0  0  0  0  0  0  0  0  0  0  0
   -2.1532  -21.1535  -98.1731 O   0  5  0  0  0  0  0  0  0  0  0  0
   -2.2824  -12.1025  -98.0837 N   0  0  0  0  0  0  0  0  0  0  0  0
   -0.7281  -19.5370  -99.4485 O   0  0  0  0  0  0  0  0  0  0  0  0
   -1.9842  -18.8206  -97.3142 O   0  0  0  0  0  0  0  0  0  0  0  0
   -1.6761  -12.9816  -98.9469 C   0  0  1  0  0  0  0  0  0  0  0  0
   -2.5539  -14.0137  -99.3141 C   0  0  2  0  0  0  0  0  0  0  0  0
   -2.4632  -15.2192 -100.2169 C   0  0  0  0  0  0  0  0  0  0  0  0
   -1.0558  -15.8250 -100.1974 C   0  0  0  0  0  0  0  0  0  0  0  0
   -1.1303  -17.1812  -99.7752 O   0  0  0  0  0  0  0  0  0  0  0  0
  1 11  1  0  0  0  0
  3 13  1  6  0  0  0
  3 17  2  0  0  0  0
  3 20  1  0  0  0  0
  3 26  1  0  0  0  0
  4 14  1  1  0  0  0
  4 18  1  0  0  0  0
  4 21  2  0  0  0  0
  4 20  1  0  0  0  0
  5 19  1  0  0  0  0
  5  7  1  0  0  0  0
  6  7  2  0  0  0  0
  6 12  1  0  0  0  0
  7  8  1  0  0  0  0
  8  9  1  0  0  0  0
  8 10  2  0  0  0  0
 10 11  1  0  0  0  0
 11 12  2  0  0  0  0
 15 23  1  0  0  0  0
 15 16  1  0  0  0  0
 16 19  1  0  0  0  0
 19 22  1  0  0  0  0
 22  2  1  6  0  0  0
 22 23  1  0  0  0  0
 23 24  1  6  0  0  0
 24 25  1  0  0  0  0
 25 26  1  0  0  0  0
M  CHG  2  13  -1  18  -1
M  END
>  <CHROM.1>
162.22155438,83.82813804,-48.07355187,-65.56929836,-146.01283031,121.58755084
179.90942323,-58.13412821,-1.12592288,-15.18899594,-97.78029900,-1.62932392
1.12954132,-2.69574352

>  <Name>
ligand

>  <RI>
0

>  <Rbt.Current_Directory>
/home/itssahil/PROJECTS/Mol_Feturizer/New_Systems/rnas/2CKY

>  <Rbt.Executable>
rbdock ($Id: //depot/dev/client3/rdock/2013.1/src/exe/rbdock.cxx#4 $)

>  <Rbt.Library>
libRbt.so (2013.1, Build901 2013/11/27)

>  <Rbt.Parameter_File>
/export/apps/rDock/src/rDock_2013.1_src/data/scripts/dock_solv.prm

>  <Rbt.Receptor>
prm/pocket_docking_6.prm

>  <SCORE>
-17.3903

>  <SCORE.INTER>
-13.9679

>  <SCORE.INTER.CONST>
1

>  <SCORE.INTER.POLAR>
0

>  <SCORE.INTER.ROT>
8

>  <SCORE.INTER.SOLV>
9.63725

>  <SCORE.INTER.VDW>
-21.4577

>  <SCORE.INTER.norm>
-0.537225

>  <SCORE.INTRA>
-3.4224

>  <SCORE.INTRA.DIHEDRAL>
-5.26712

>  <SCORE.INTRA.DIHEDRAL.0>
16.4846

>  <SCORE.INTRA.POLAR>
0

>  <SCORE.INTRA.POLAR.0>
0

>  <SCORE.INTRA.REPUL>
0

>  <SCORE.INTRA.REPUL.0>
0

>  <SCORE.INTRA.SOLV>
0.0295308

>  <SCORE.INTRA.SOLV.lig_0>
-82.6983

>  <SCORE.INTRA.VDW>
-0.803602

>  <SCORE.INTRA.VDW.0>
-2.11466

>  <SCORE.INTRA.norm>
-0.131631

>  <SCORE.RESTR>
0

>  <SCORE.RESTR.CAVITY>
0

>  <SCORE.RESTR.norm>
0

>  <SCORE.SYSTEM>
0

>  <SCORE.SYSTEM.CONST>
0

>  <SCORE.SYSTEM.DIHEDRAL>
0

>  <SCORE.SYSTEM.SOLV>
0

>  <SCORE.SYSTEM.norm>
0

>  <SCORE.heavy>
26

>  <SCORE.norm>
-0.668856

>  <RMSD>
7.755

$$$$
ligand
 OpenBabel11021811423D
libRbt.so/2013.1/901 2013/11/27
 26 27  0  0  0  0  0  0  0  0999 V2000
    0.2865  -11.8176  -92.5587 C   0  0  0  0  0  0  0  0  0  0  0  0
   -0.4361  -13.1264  -99.5817 C   0  0  0  0  0  0  0  0  0  0  0  0
   -0.2867  -18.0252  -97.9981 P   0  0  2  0  0  0  0  0  0  0  0  0
   -0.3920  -18.7625  -95.3305 P   0  0  2  0  0  0  0  0  0  0  0  0
   -2.1215  -11.2114  -97.7259 C   0  0  0  0  0  0  0  0  0  0  0  0
   -2.1887  -11.8465  -95.3274 C   0  0  0  0  0  0  0  0  0  0  0  0
   -1.4524  -11.3290  -96.3853 C   0  0  0  0  0  0  0  0  0  0  0  0
   -0.1122  -10.9926  -96.1734 C   0  0  0  0  0  0  0  0  0  0  0  0
    0.6949  -10.5011  -97.1141 N   0  0  0  0  0  0  0  0  0  0  0  0
    0.4279  -11.1650  -94.9253 N   0  0  0  0  0  0  0  0  0  0  0  0
   -0.3272  -11.6581  -93.8987 C   0  0  0  0  0  0  0  0  0  0  0  0
   -1.6274  -12.0070  -94.0788 N   0  0  0  0  0  0  0  0  0  0  0  0
   -0.6450  -19.4377  -98.4157 O   0  5  0  0  0  0  0  0  0  0  0  0
    1.1192  -18.7926  -95.3767 O   0  0  0  0  0  0  0  0  0  0  0  0
   -4.0895  -14.3838  -98.9224 S   0  0  0  0  0  0  0  0  0  0  0  0
   -3.8128  -12.9816  -98.1391 C   0  0  0  0  0  0  0  0  0  0  0  0
    1.2198  -17.8872  -98.2013 O   0  0  0  0  0  0  0  0  0  0  0  0
   -0.9898  -20.1302  -95.5907 O   0  5  0  0  0  0  0  0  0  0  0  0
   -2.5422  -12.4643  -98.3062 N   0  0  0  0  0  0  0  0  0  0  0  0
   -0.8724  -17.8039  -96.5101 O   0  0  0  0  0  0  0  0  0  0  0  0
   -0.8149  -18.2450  -93.9707 O   0  0  0  0  0  0  0  0  0  0  0  0
   -1.8299  -13.3044  -99.1262 C   0  0  1  0  0  0  0  0  0  0  0  0
   -2.6106  -14.4006  -99.5251 C   0  0  2  0  0  0  0  0  0  0  0  0
   -2.3864  -15.6041 -100.4071 C   0  0  0  0  0  0  0  0  0  0  0  0
   -1.1231  -16.3680  -99.9964 C   0  0  0  0  0  0  0  0  0  0  0  0
   -1.3325  -16.9827  -98.7310 O   0  0  0  0  0  0  0  0  0  0  0  0
  1 11  1  0  0  0  0
  3 13  1  6  0  0  0
  3 17  2  0  0  0  0
  3 20  1  0  0  0  0
  3 26  1  0  0  0  0
  4 14  1  6  0  0  0
  4 18  1  0  0  0  0
  4 21  2  0  0  0  0
  4 20  1  0  0  0  0
  5 19  1  0  0  0  0
  5  7  1  0  0  0  0
  6  7  2  0  0  0  0
  6 12  1  0  0  0  0
  7  8  1  0  0  0  0
  8  9  1  0  0  0  0
  8 10  2  0  0  0  0
 10 11  1  0  0  0  0
 11 12  2  0  0  0  0
 15 23  1  0  0  0  0
 15 16  1  0  0  0  0
 16 19  1  0  0  0  0
 19 22  1  0  0  0  0
 22  2  1  6  0  0  0
 22 23  1  0  0  0  0
 23 24  1  6  0  0  0
 24 25  1  0  0  0  0
 25 26  1  0  0  0  0
M  CHG  2  13  -1  18  -1
M  END
>  <CHROM.1>
58.87418628,93.26554642,-62.40562173,50.01767596,-128.04897183,68.77218284
173.30905061,-90.74289739,-1.10273360,-15.14640252,-97.05363508,-1.85281443
1.12742011,-2.82291492

>  <Name>
ligand

>  <RI>
0

>  <Rbt.Current_Directory>
/home/itssahil/PROJECTS/Mol_Feturizer/New_Systems/rnas/2CKY

>  <Rbt.Executable>
rbdock ($Id: //depot/dev/client3/rdock/2013.1/src/exe/rbdock.cxx#4 $)

>  <Rbt.Library>
libRbt.so (2013.1, Build901 2013/11/27)

>  <Rbt.Parameter_File>
/export/apps/rDock/src/rDock_2013.1_src/data/scripts/dock_solv.prm

>  <Rbt.Receptor>
prm/pocket_docking_5.prm

>  <SCORE>
-17.9578

>  <SCORE.INTER>
-11.8204

>  <SCORE.INTER.CONST>
1

>  <SCORE.INTER.POLAR>
0

>  <SCORE.INTER.ROT>
8

>  <SCORE.INTER.SOLV>
11.228

>  <SCORE.INTER.VDW>
-20.5563

>  <SCORE.INTER.norm>
-0.45463

>  <SCORE.INTRA>
-6.24172

>  <SCORE.INTRA.DIHEDRAL>
-10.1221

>  <SCORE.INTRA.DIHEDRAL.0>
16.4846

>  <SCORE.INTRA.POLAR>
0

>  <SCORE.INTRA.POLAR.0>
0

>  <SCORE.INTRA.REPUL>
0

>  <SCORE.INTRA.REPUL.0>
0

>  <SCORE.INTRA.SOLV>
1.12999

>  <SCORE.INTRA.SOLV.lig_0>
-82.6983

>  <SCORE.INTRA.VDW>
-1.74566

>  <SCORE.INTRA.VDW.0>
-2.11466

>  <SCORE.INTRA.norm>
-0.240066

>  <SCORE.RESTR>
0.104262

>  <SCORE.RESTR.CAVITY>
0.104262

>  <SCORE.RESTR.norm>
0.00401008

>  <SCORE.SYSTEM>
0

>  <SCORE.SYSTEM.CONST>
0

>  <SCORE.SYSTEM.DIHEDRAL>
0

>  <SCORE.SYSTEM.SOLV>
0

>  <SCORE.SYSTEM.norm>
0

>  <SCORE.heavy>
26

>  <SCORE.norm>
-0.690686

>  <RMSD>
7.762

$$$$
ligand
 OpenBabel11021811423D
libRbt.so/2013.1/901 2013/11/27
 26 27  0  0  0  0  0  0  0  0999 V2000
   -3.8068  -16.6927  -99.0109 C   0  0  0  0  0  0  0  0  0  0  0  0
    0.0959  -11.1052  -94.5642 C   0  0  0  0  0  0  0  0  0  0  0  0
    3.5100  -12.0649  -98.3768 P   0  0  2  0  0  0  0  0  0  0  0  0
    2.0915  -13.7126 -100.0925 P   0  0  2  0  0  0  0  0  0  0  0  0
   -2.6296  -12.0778  -95.8199 C   0  0  0  0  0  0  0  0  0  0  0  0
   -3.6260  -13.1844  -97.8056 C   0  0  0  0  0  0  0  0  0  0  0  0
   -2.9343  -13.3201  -96.6089 C   0  0  0  0  0  0  0  0  0  0  0  0
   -2.5055  -14.5920  -96.2181 C   0  0  0  0  0  0  0  0  0  0  0  0
   -1.8239  -14.8424  -95.0998 N   0  0  0  0  0  0  0  0  0  0  0  0
   -2.7974  -15.6673  -97.0169 N   0  0  0  0  0  0  0  0  0  0  0  0
   -3.4969  -15.5052  -98.1795 C   0  0  0  0  0  0  0  0  0  0  0  0
   -3.9134  -14.2798  -98.5914 N   0  0  0  0  0  0  0  0  0  0  0  0
    4.3385  -11.3312  -99.4128 O   0  5  0  0  0  0  0  0  0  0  0  0
    0.7127  -13.7426 -100.7126 O   0  0  0  0  0  0  0  0  0  0  0  0
   -0.6117   -9.6343  -98.1278 S   0  0  0  0  0  0  0  0  0  0  0  0
   -1.8178  -10.6280  -97.6649 C   0  0  0  0  0  0  0  0  0  0  0  0
    4.3959  -13.1826  -97.8327 O   0  0  0  0  0  0  0  0  0  0  0  0
    2.3712  -14.9622  -99.2827 O   0  5  0  0  0  0  0  0  0  0  0  0
   -1.6503  -11.2031  -96.4193 N   0  0  0  0  0  0  0  0  0  0  0  0
    2.1188  -12.4788  -99.0834 O   0  0  0  0  0  0  0  0  0  0  0  0
    3.1088  -13.5586 -101.2048 O   0  0  0  0  0  0  0  0  0  0  0  0
   -0.4665  -10.7576  -95.8850 C   0  0  1  0  0  0  0  0  0  0  0  0
    0.1816   -9.8742  -96.7625 C   0  0  2  0  0  0  0  0  0  0  0  0
    1.4629   -9.0786  -96.7202 C   0  0  0  0  0  0  0  0  0  0  0  0
    2.4894   -9.6224  -97.7197 C   0  0  0  0  0  0  0  0  0  0  0  0
    2.8406  -10.9530  -97.3603 O   0  0  0  0  0  0  0  0  0  0  0  0
  1 11  1  0  0  0  0
  3 13  1  6  0  0  0
  3 17  2  0  0  0  0
  3 20  1  0  0  0  0
  3 26  1  0  0  0  0
  4 14  1  6  0  0  0
  4 18  1  0  0  0  0
  4 21  2  0  0  0  0
  4 20  1  0  0  0  0
  5 19  1  0  0  0  0
  5  7  1  0  0  0  0
  6  7  2  0  0  0  0
  6 12  1  0  0  0  0
  7  8  1  0  0  0  0
  8  9  1  0  0  0  0
  8 10  2  0  0  0  0
 10 11  1  0  0  0  0
 11 12  2  0  0  0  0
 15 23  1  0  0  0  0
 15 16  1  0  0  0  0
 16 19  1  0  0  0  0
 19 22  1  0  0  0  0
 22  2  1  1  0  0  0
 22 23  1  0  0  0  0
 23 24  1  1  0  0  0
 24 25  1  0  0  0  0
 25 26  1  0  0  0  0
M  CHG  2  13  -1  18  -1
M  END
>  <CHROM.1>
76.54155244,59.83174597,-69.66729925,-173.10430335,-69.41481622,-63.11105451
159.42822012,29.84155728,0.27740806,-12.52778743,-97.95949114,-2.97224022
0.39116007,0.53796669

>  <Name>
ligand

>  <RI>
0

>  <Rbt.Current_Directory>
/home/itssahil/PROJECTS/Mol_Feturizer/New_Systems/rnas/2CKY

>  <Rbt.Executable>
rbdock ($Id: //depot/dev/client3/rdock/2013.1/src/exe/rbdock.cxx#4 $)

>  <Rbt.Library>
libRbt.so (2013.1, Build901 2013/11/27)

>  <Rbt.Parameter_File>
/export/apps/rDock/src/rDock_2013.1_src/data/scripts/dock_solv.prm

>  <Rbt.Receptor>
prm/pocket_docking_6.prm

>  <SCORE>
-13.6398

>  <SCORE.INTER>
-9.1404

>  <SCORE.INTER.CONST>
1

>  <SCORE.INTER.POLAR>
0

>  <SCORE.INTER.ROT>
8

>  <SCORE.INTER.SOLV>
13.5078

>  <SCORE.INTER.VDW>
-19.5295

>  <SCORE.INTER.norm>
-0.351554

>  <SCORE.INTRA>
-4.49935

>  <SCORE.INTRA.DIHEDRAL>
-8.15017

>  <SCORE.INTRA.DIHEDRAL.0>
16.4846

>  <SCORE.INTRA.POLAR>
0

>  <SCORE.INTRA.POLAR.0>
0

>  <SCORE.INTRA.REPUL>
0

>  <SCORE.INTRA.REPUL.0>
0

>  <SCORE.INTRA.SOLV>
2.31314

>  <SCORE.INTRA.SOLV.lig_0>
-82.6983

>  <SCORE.INTRA.VDW>
-1.58083

>  <SCORE.INTRA.VDW.0>
-2.11466

>  <SCORE.INTRA.norm>
-0.173052

>  <SCORE.RESTR>
0

>  <SCORE.RESTR.CAVITY>
0

>  <SCORE.RESTR.norm>
0

>  <SCORE.SYSTEM>
0

>  <SCORE.SYSTEM.CONST>
0

>  <SCORE.SYSTEM.DIHEDRAL>
0

>  <SCORE.SYSTEM.SOLV>
0

>  <SCORE.SYSTEM.norm>
0

>  <SCORE.heavy>
26

>  <SCORE.norm>
-0.524606

>  <RMSD>
7.781

$$$$
ligand
 OpenBabel11021811423D
libRbt.so/2013.1/901 2013/11/27
 26 27  0  0  0  0  0  0  0  0999 V2000
    0.1464  -11.6706  -92.1887 C   0  0  0  0  0  0  0  0  0  0  0  0
   -0.4900  -13.2510  -99.4763 C   0  0  0  0  0  0  0  0  0  0  0  0
   -1.2026  -17.7072  -97.3761 P   0  0  2  0  0  0  0  0  0  0  0  0
   -1.0230  -20.4395  -97.7921 P   0  0  2  0  0  0  0  0  0  0  0  0
   -1.6561  -11.0073  -97.5903 C   0  0  0  0  0  0  0  0  0  0  0  0
   -2.0293  -11.5447  -95.1960 C   0  0  0  0  0  0  0  0  0  0  0  0
   -1.1404  -11.1445  -96.1853 C   0  0  0  0  0  0  0  0  0  0  0  0
    0.2001  -10.9405  -95.8452 C   0  0  0  0  0  0  0  0  0  0  0  0
    1.1446  -10.5692  -96.7100 N   0  0  0  0  0  0  0  0  0  0  0  0
    0.5917  -11.1222  -94.5440 N   0  0  0  0  0  0  0  0  0  0  0  0
   -0.3101  -11.4974  -93.5884 C   0  0  0  0  0  0  0  0  0  0  0  0
   -1.6155  -11.7168  -93.8925 N   0  0  0  0  0  0  0  0  0  0  0  0
    0.3077  -17.7573  -97.2558 O   0  5  0  0  0  0  0  0  0  0  0  0
   -0.9617  -20.4955  -96.2823 O   0  0  0  0  0  0  0  0  0  0  0  0
   -4.2643  -13.7702  -98.5557 S   0  0  0  0  0  0  0  0  0  0  0  0
   -3.6760  -12.4296  -97.8396 C   0  0  0  0  0  0  0  0  0  0  0  0
   -1.7389  -17.5059  -95.9613 O   0  0  0  0  0  0  0  0  0  0  0  0
    0.3579  -20.4919  -98.4134 O   0  5  0  0  0  0  0  0  0  0  0  0
   -2.3439  -12.1692  -98.1004 N   0  0  0  0  0  0  0  0  0  0  0  0
   -1.6622  -19.0309  -98.1777 O   0  0  0  0  0  0  0  0  0  0  0  0
   -1.8704  -21.5987  -98.2759 O   0  0  0  0  0  0  0  0  0  0  0  0
   -1.8592  -13.1484  -98.9321 C   0  0  1  0  0  0  0  0  0  0  0  0
   -2.8582  -14.0836  -99.2452 C   0  0  2  0  0  0  0  0  0  0  0  0
   -2.9247  -15.3273 -100.0968 C   0  0  0  0  0  0  0  0  0  0  0  0
   -2.8563  -16.5946  -99.2380 C   0  0  0  0  0  0  0  0  0  0  0  0
   -1.5959  -16.6538  -98.5816 O   0  0  0  0  0  0  0  0  0  0  0  0
  1 11  1  0  0  0  0
  3 13  1  1  0  0  0
  3 17  2  0  0  0  0
  3 20  1  0  0  0  0
  3 26  1  0  0  0  0
  4 14  1  1  0  0  0
  4 18  1  0  0  0  0
  4 21  2  0  0  0  0
  4 20  1  0  0  0  0
  5 19  1  0  0  0  0
  5  7  1  0  0  0  0
  6  7  2  0  0  0  0
  6 12  1  0  0  0  0
  7  8  1  0  0  0  0
  8  9  1  0  0  0  0
  8 10  2  0  0  0  0
 10 11  1  0  0  0  0
 11 12  2  0  0  0  0
 15 23  1  0  0  0  0
 15 16  1  0  0  0  0
 16 19  1  0  0  0  0
 19 22  1  0  0  0  0
 22  2  1  6  0  0  0
 22 23  1  0  0  0  0
 23 24  1  6  0  0  0
 24 25  1  0  0  0  0
 25 26  1  0  0  0  0
M  CHG  2  13  -1  18  -1
M  END
>  <CHROM.1>
44.58277282,83.07449000,-52.76581048,42.03414351,-78.44259868,-63.93158745
169.17175539,162.19990158,-1.43713590,-15.28516715,-97.25012606,-1.53391358
0.97177996,-2.92816199

>  <Name>
ligand

>  <RI>
0

>  <Rbt.Current_Directory>
/home/itssahil/PROJECTS/Mol_Feturizer/New_Systems/rnas/2CKY

>  <Rbt.Executable>
rbdock ($Id: //depot/dev/client3/rdock/2013.1/src/exe/rbdock.cxx#4 $)

>  <Rbt.Library>
libRbt.so (2013.1, Build901 2013/11/27)

>  <Rbt.Parameter_File>
/export/apps/rDock/src/rDock_2013.1_src/data/scripts/dock_solv.prm

>  <Rbt.Receptor>
prm/pocket_docking_8.prm

>  <SCORE>
-20.6372

>  <SCORE.INTER>
-14.7119

>  <SCORE.INTER.CONST>
1

>  <SCORE.INTER.POLAR>
0

>  <SCORE.INTER.ROT>
8

>  <SCORE.INTER.SOLV>
12.8191

>  <SCORE.INTER.VDW>
-23.0143

>  <SCORE.INTER.norm>
-0.565843

>  <SCORE.INTRA>
-5.92526

>  <SCORE.INTRA.DIHEDRAL>
-9.33834

>  <SCORE.INTRA.DIHEDRAL.0>
16.4846

>  <SCORE.INTRA.POLAR>
0

>  <SCORE.INTRA.POLAR.0>
0

>  <SCORE.INTRA.REPUL>
0

>  <SCORE.INTRA.REPUL.0>
0

>  <SCORE.INTRA.SOLV>
0.311564

>  <SCORE.INTRA.SOLV.lig_0>
-82.6983

>  <SCORE.INTRA.VDW>
-1.41187

>  <SCORE.INTRA.VDW.0>
-2.11466

>  <SCORE.INTRA.norm>
-0.227894

>  <SCORE.RESTR>
0

>  <SCORE.RESTR.CAVITY>
0

>  <SCORE.RESTR.norm>
0

>  <SCORE.SYSTEM>
0

>  <SCORE.SYSTEM.CONST>
0

>  <SCORE.SYSTEM.DIHEDRAL>
0

>  <SCORE.SYSTEM.SOLV>
0

>  <SCORE.SYSTEM.norm>
0

>  <SCORE.heavy>
26

>  <SCORE.norm>
-0.793738

>  <RMSD>
7.788

$$$$
ligand
 OpenBabel11021811423D
libRbt.so/2013.1/901 2013/11/27
 26 27  0  0  0  0  0  0  0  0999 V2000
    2.0115  -19.3732 -100.9439 C   0  0  0  0  0  0  0  0  0  0  0  0
   -2.6941  -15.1478  -96.1529 C   0  0  0  0  0  0  0  0  0  0  0  0
    0.3327  -10.9696  -98.4109 P   0  0  2  0  0  0  0  0  0  0  0  0
    2.6224  -12.3474  -97.6831 P   0  0  2  0  0  0  0  0  0  0  0  0
   -2.7088  -17.4165  -98.3447 C   0  0  0  0  0  0  0  0  0  0  0  0
   -0.7638  -17.1540  -99.8641 C   0  0  0  0  0  0  0  0  0  0  0  0
   -1.4919  -17.9832  -99.0207 C   0  0  0  0  0  0  0  0  0  0  0  0
   -1.0347  -19.2847  -98.7948 C   0  0  0  0  0  0  0  0  0  0  0  0
   -1.6415  -20.1645  -97.9975 N   0  0  0  0  0  0  0  0  0  0  0  0
    0.1056  -19.7086  -99.4268 N   0  0  0  0  0  0  0  0  0  0  0  0
    0.7902  -18.8760 -100.2666 C   0  0  0  0  0  0  0  0  0  0  0  0
    0.3777  -17.6020 -100.4936 N   0  0  0  0  0  0  0  0  0  0  0  0
    0.8026  -10.8407  -99.8464 O   0  5  0  0  0  0  0  0  0  0  0  0
    3.0524  -11.1384  -96.8831 O   0  0  0  0  0  0  0  0  0  0  0  0
   -3.4288  -13.8375  -99.7732 S   0  0  0  0  0  0  0  0  0  0  0  0
   -3.1870  -15.4492  -99.7820 C   0  0  0  0  0  0  0  0  0  0  0  0
    0.6220   -9.6279  -97.7430 O   0  0  0  0  0  0  0  0  0  0  0  0
    3.1746  -12.3136  -99.0937 O   0  5  0  0  0  0  0  0  0  0  0  0
   -2.9110  -16.0016  -98.5455 N   0  0  0  0  0  0  0  0  0  0  0  0
    1.0334  -12.2873  -97.7954 O   0  0  0  0  0  0  0  0  0  0  0  0
    3.0933  -13.5900  -96.9552 O   0  0  0  0  0  0  0  0  0  0  0  0
   -2.9221  -15.0013  -97.6049 C   0  0  1  0  0  0  0  0  0  0  0  0
   -3.2069  -13.7592  -98.1935 C   0  0  2  0  0  0  0  0  0  0  0  0
   -3.3643  -12.3485  -97.6821 C   0  0  0  0  0  0  0  0  0  0  0  0
   -2.0152  -11.7533  -97.2652 C   0  0  0  0  0  0  0  0  0  0  0  0
   -1.1927  -11.5948  -98.4147 O   0  0  0  0  0  0  0  0  0  0  0  0
  1 11  1  0  0  0  0
  3 13  1  6  0  0  0
  3 17  2  0  0  0  0
  3 20  1  0  0  0  0
  3 26  1  0  0  0  0
  4 14  1  1  0  0  0
  4 18  1  0  0  0  0
  4 21  2  0  0  0  0
  4 20  1  0  0  0  0
  5 19  1  0  0  0  0
  5  7  1  0  0  0  0
  6  7  2  0  0  0  0
  6 12  1  0  0  0  0
  7  8  1  0  0  0  0
  8  9  1  0  0  0  0
  8 10  2  0  0  0  0
 10 11  1  0  0  0  0
 11 12  2  0  0  0  0
 15 23  1  0  0  0  0
 15 16  1  0  0  0  0
 16 19  1  0  0  0  0
 19 22  1  0  0  0  0
 22  2  1  1  0  0  0
 22 23  1  0  0  0  0
 23 24  1  1  0  0  0
 24 25  1  0  0  0  0
 25 26  1  0  0  0  0
M  CHG  2  13  -1  18  -1
M  END
>  <CHROM.1>
62.52153040,65.22816522,-6.19394969,55.70282224,-108.65185720,66.45151685
179.20226475,-174.17670139,-0.41041709,-14.36917132,-98.55215468,-1.85947820
0.03555790,0.18988950

>  <Name>
ligand

>  <RI>
0

>  <Rbt.Current_Directory>
/home/itssahil/PROJECTS/Mol_Feturizer/New_Systems/rnas/2CKY

>  <Rbt.Executable>
rbdock ($Id: //depot/dev/client3/rdock/2013.1/src/exe/rbdock.cxx#4 $)

>  <Rbt.Library>
libRbt.so (2013.1, Build901 2013/11/27)

>  <Rbt.Parameter_File>
/export/apps/rDock/src/rDock_2013.1_src/data/scripts/dock_solv.prm

>  <Rbt.Receptor>
prm/pocket_docking_7.prm

>  <SCORE>
-15.14

>  <SCORE.INTER>
-7.95421

>  <SCORE.INTER.CONST>
1

>  <SCORE.INTER.POLAR>
0

>  <SCORE.INTER.ROT>
8

>  <SCORE.INTER.SOLV>
6.94377

>  <SCORE.INTER.VDW>
-16.5507

>  <SCORE.INTER.norm>
-0.305931

>  <SCORE.INTRA>
-7.18575

>  <SCORE.INTRA.DIHEDRAL>
-11.3816

>  <SCORE.INTRA.DIHEDRAL.0>
16.4846

>  <SCORE.INTRA.POLAR>
0

>  <SCORE.INTRA.POLAR.0>
0

>  <SCORE.INTRA.REPUL>
0

>  <SCORE.INTRA.REPUL.0>
0

>  <SCORE.INTRA.SOLV>
-0.088098

>  <SCORE.INTRA.SOLV.lig_0>
-82.6983

>  <SCORE.INTRA.VDW>
-1.45093

>  <SCORE.INTRA.VDW.0>
-2.11466

>  <SCORE.INTRA.norm>
-0.276375

>  <SCORE.RESTR>
0

>  <SCORE.RESTR.CAVITY>
0

>  <SCORE.RESTR.norm>
0

>  <SCORE.SYSTEM>
0

>  <SCORE.SYSTEM.CONST>
0

>  <SCORE.SYSTEM.DIHEDRAL>
0

>  <SCORE.SYSTEM.SOLV>
0

>  <SCORE.SYSTEM.norm>
0

>  <SCORE.heavy>
26

>  <SCORE.norm>
-0.582306

>  <RMSD>
7.841

$$$$
ligand
 OpenBabel11021811423D
libRbt.so/2013.1/901 2013/11/27
 26 27  0  0  0  0  0  0  0  0999 V2000
   -3.1925  -21.8114  -97.2424 C   0  0  0  0  0  0  0  0  0  0  0  0
   -2.8103  -13.1876  -99.1145 C   0  0  0  0  0  0  0  0  0  0  0  0
    0.9599  -11.5430  -95.1691 P   0  0  2  0  0  0  0  0  0  0  0  0
    0.6919  -12.5420  -92.6000 P   0  0  2  0  0  0  0  0  0  0  0  0
   -2.6481  -16.3229  -98.8060 C   0  0  0  0  0  0  0  0  0  0  0  0
   -3.8923  -18.4679  -98.7000 C   0  0  0  0  0  0  0  0  0  0  0  0
   -2.7540  -17.7519  -98.3528 C   0  0  0  0  0  0  0  0  0  0  0  0
   -1.7369  -18.4023  -97.6479 C   0  0  0  0  0  0  0  0  0  0  0  0
   -0.5963  -17.8227  -97.2725 N   0  0  0  0  0  0  0  0  0  0  0  0
   -1.9023  -19.7191  -97.3044 N   0  0  0  0  0  0  0  0  0  0  0  0
   -3.0422  -20.3921  -97.6431 C   0  0  0  0  0  0  0  0  0  0  0  0
   -4.0404  -19.7903  -98.3402 N   0  0  0  0  0  0  0  0  0  0  0  0
    2.0056  -11.8216  -96.2307 O   0  5  0  0  0  0  0  0  0  0  0  0
    1.7981  -11.6424  -92.0963 O   0  0  0  0  0  0  0  0  0  0  0  0
   -2.8484  -14.4094  -95.3903 S   0  0  0  0  0  0  0  0  0  0  0  0
   -2.7670  -15.6769  -96.4115 C   0  0  0  0  0  0  0  0  0  0  0  0
    1.2779  -10.1600  -94.6069 O   0  0  0  0  0  0  0  0  0  0  0  0
    0.7095  -13.8928  -91.9140 O   0  5  0  0  0  0  0  0  0  0  0  0
   -2.7577  -15.3424  -97.7525 N   0  0  0  0  0  0  0  0  0  0  0  0
    0.9693  -12.7943  -94.1493 O   0  0  0  0  0  0  0  0  0  0  0  0
   -0.6318  -11.8423  -92.3670 O   0  0  0  0  0  0  0  0  0  0  0  0
   -2.8157  -13.9751  -97.8648 C   0  0  1  0  0  0  0  0  0  0  0  0
   -2.8640  -13.3672  -96.6005 C   0  0  2  0  0  0  0  0  0  0  0  0
   -2.9192  -11.9436  -96.1038 C   0  0  0  0  0  0  0  0  0  0  0  0
   -1.7655  -11.6446  -95.1405 C   0  0  0  0  0  0  0  0  0  0  0  0
   -0.5266  -11.8716  -95.8013 O   0  0  0  0  0  0  0  0  0  0  0  0
  1 11  1  0  0  0  0
  3 13  1  6  0  0  0
  3 17  2  0  0  0  0
  3 20  1  0  0  0  0
  3 26  1  0  0  0  0
  4 14  1  1  0  0  0
  4 18  1  0  0  0  0
  4 21  2  0  0  0  0
  4 20  1  0  0  0  0
  5 19  1  0  0  0  0
  5  7  1  0  0  0  0
  6  7  2  0  0  0  0
  6 12  1  0  0  0  0
  7  8  1  0  0  0  0
  8  9  1  0  0  0  0
  8 10  2  0  0  0  0
 10 11  1  0  0  0  0
 11 12  2  0  0  0  0
 15 23  1  0  0  0  0
 15 16  1  0  0  0  0
 16 19  1  0  0  0  0
 19 22  1  0  0  0  0
 22  2  1  1  0  0  0
 22 23  1  0  0  0  0
 23 24  1  1  0  0  0
 24 25  1  0  0  0  0
 25 26  1  0  0  0  0
M  CHG  2  13  -1  18  -1
M  END
>  <CHROM.1>
145.32835878,8.86612172,109.87112814,-62.19817831,55.60557856,58.71558534
174.31726639,-175.39713586,-1.22539262,-14.52208832,-95.84342613,-2.33831787
-0.94847760,-0.14324009

>  <Name>
ligand

>  <RI>
0

>  <Rbt.Current_Directory>
/home/itssahil/PROJECTS/Mol_Feturizer/New_Systems/rnas/2CKY

>  <Rbt.Executable>
rbdock ($Id: //depot/dev/client3/rdock/2013.1/src/exe/rbdock.cxx#4 $)

>  <Rbt.Library>
libRbt.so (2013.1, Build901 2013/11/27)

>  <Rbt.Parameter_File>
/export/apps/rDock/src/rDock_2013.1_src/data/scripts/dock_solv.prm

>  <Rbt.Receptor>
prm/pocket_docking_8.prm

>  <SCORE>
-17.9606

>  <SCORE.INTER>
-13.3499

>  <SCORE.INTER.CONST>
1

>  <SCORE.INTER.POLAR>
0

>  <SCORE.INTER.ROT>
8

>  <SCORE.INTER.SOLV>
10.7348

>  <SCORE.INTER.VDW>
-21.4115

>  <SCORE.INTER.norm>
-0.513456

>  <SCORE.INTRA>
-4.61071

>  <SCORE.INTRA.DIHEDRAL>
-9.31575

>  <SCORE.INTRA.DIHEDRAL.0>
16.4846

>  <SCORE.INTRA.POLAR>
0

>  <SCORE.INTRA.POLAR.0>
0

>  <SCORE.INTRA.REPUL>
0

>  <SCORE.INTRA.REPUL.0>
0

>  <SCORE.INTRA.SOLV>
1.67673

>  <SCORE.INTRA.SOLV.lig_0>
-82.6983

>  <SCORE.INTRA.VDW>
-0.791199

>  <SCORE.INTRA.VDW.0>
-2.11466

>  <SCORE.INTRA.norm>
-0.177335

>  <SCORE.RESTR>
0

>  <SCORE.RESTR.CAVITY>
0

>  <SCORE.RESTR.norm>
0

>  <SCORE.SYSTEM>
0

>  <SCORE.SYSTEM.CONST>
0

>  <SCORE.SYSTEM.DIHEDRAL>
0

>  <SCORE.SYSTEM.SOLV>
0

>  <SCORE.SYSTEM.norm>
0

>  <SCORE.heavy>
26

>  <SCORE.norm>
-0.690791

>  <RMSD>
7.850

$$$$
ligand
 OpenBabel11021811423D
libRbt.so/2013.1/901 2013/11/27
 26 27  0  0  0  0  0  0  0  0999 V2000
   -3.3555  -22.4697  -95.8499 C   0  0  0  0  0  0  0  0  0  0  0  0
   -0.9446  -15.8679 -100.8156 C   0  0  0  0  0  0  0  0  0  0  0  0
   -2.5581  -11.9261  -95.9462 P   0  0  2  0  0  0  0  0  0  0  0  0
   -0.3118  -12.4415  -94.4102 P   0  0  2  0  0  0  0  0  0  0  0  0
   -2.2336  -18.6100  -99.9377 C   0  0  0  0  0  0  0  0  0  0  0  0
   -3.7782  -20.0585  -98.6430 C   0  0  0  0  0  0  0  0  0  0  0  0
   -2.4803  -19.6044  -98.8381 C   0  0  0  0  0  0  0  0  0  0  0  0
   -1.4557  -20.1290  -98.0449 C   0  0  0  0  0  0  0  0  0  0  0  0
   -0.1731  -19.7799  -98.1497 N   0  0  0  0  0  0  0  0  0  0  0  0
   -1.7657  -21.0595  -97.0870 N   0  0  0  0  0  0  0  0  0  0  0  0
   -3.0555  -21.4726  -96.9050 C   0  0  0  0  0  0  0  0  0  0  0  0
   -4.0689  -20.9912  -97.6705 N   0  0  0  0  0  0  0  0  0  0  0  0
   -1.8713  -10.6338  -96.3416 O   0  5  0  0  0  0  0  0  0  0  0  0
   -1.0574  -11.7873  -93.2688 O   0  0  0  0  0  0  0  0  0  0  0  0
   -4.2396  -15.4653  -98.7314 S   0  0  0  0  0  0  0  0  0  0  0  0
   -3.8816  -17.0409  -98.9442 C   0  0  0  0  0  0  0  0  0  0  0  0
   -3.6512  -11.5437  -94.9518 O   0  0  0  0  0  0  0  0  0  0  0  0
    0.5794  -11.4557  -95.1380 O   0  5  0  0  0  0  0  0  0  0  0  0
   -2.7359  -17.2819  -99.6787 N   0  0  0  0  0  0  0  0  0  0  0  0
   -1.4086  -12.9458  -95.4512 O   0  0  0  0  0  0  0  0  0  0  0  0
    0.5061  -13.5864  -93.8482 O   0  0  0  0  0  0  0  0  0  0  0  0
   -2.1838  -16.0775 -100.0396 C   0  0  1  0  0  0  0  0  0  0  0  0
   -2.9490  -15.0062  -99.5526 C   0  0  2  0  0  0  0  0  0  0  0  0
   -2.8375  -13.5028  -99.6128 C   0  0  0  0  0  0  0  0  0  0  0  0
   -2.0469  -12.9547  -98.4200 C   0  0  0  0  0  0  0  0  0  0  0  0
   -2.9254  -12.7634  -97.3179 O   0  0  0  0  0  0  0  0  0  0  0  0
  1 11  1  0  0  0  0
  3 13  1  6  0  0  0
  3 17  2  0  0  0  0
  3 20  1  0  0  0  0
  3 26  1  0  0  0  0
  4 14  1  1  0  0  0
  4 18  1  0  0  0  0
  4 21  2  0  0  0  0
  4 20  1  0  0  0  0
  5 19  1  0  0  0  0
  5  7  1  0  0  0  0
  6  7  2  0  0  0  0
  6 12  1  0  0  0  0
  7  8  1  0  0  0  0
  8  9  1  0  0  0  0
  8 10  2  0  0  0  0
 10 11  1  0  0  0  0
 11 12  2  0  0  0  0
 15 23  1  0  0  0  0
 15 16  1  0  0  0  0
 16 19  1  0  0  0  0
 19 22  1  0  0  0  0
 22  2  1  1  0  0  0
 22 23  1  0  0  0  0
 23 24  1  1  0  0  0
 24 25  1  0  0  0  0
 25 26  1  0  0  0  0
M  CHG  2  13  -1  18  -1
M  END
>  <CHROM.1>
48.08748318,-33.00275333,71.91000717,50.06101372,89.09175484,-85.86044470
-167.47692195,44.88355836,-2.16768595,-15.48502142,-97.20456155,-1.96230952
-1.16317045,-0.02279356

>  <Name>
ligand

>  <RI>
0

>  <Rbt.Current_Directory>
/home/itssahil/PROJECTS/Mol_Feturizer/New_Systems/rnas/2CKY

>  <Rbt.Executable>
rbdock ($Id: //depot/dev/client3/rdock/2013.1/src/exe/rbdock.cxx#4 $)

>  <Rbt.Library>
libRbt.so (2013.1, Build901 2013/11/27)

>  <Rbt.Parameter_File>
/export/apps/rDock/src/rDock_2013.1_src/data/scripts/dock_solv.prm

>  <Rbt.Receptor>
prm/pocket_docking_7.prm

>  <SCORE>
-21.8125

>  <SCORE.INTER>
-16.8813

>  <SCORE.INTER.CONST>
1

>  <SCORE.INTER.POLAR>
0

>  <SCORE.INTER.ROT>
8

>  <SCORE.INTER.SOLV>
20.9285

>  <SCORE.INTER.VDW>
-27.1637

>  <SCORE.INTER.norm>
-0.649281

>  <SCORE.INTRA>
-4.93115

>  <SCORE.INTRA.DIHEDRAL>
-7.82839

>  <SCORE.INTRA.DIHEDRAL.0>
16.4846

>  <SCORE.INTRA.POLAR>
0

>  <SCORE.INTRA.POLAR.0>
0

>  <SCORE.INTRA.REPUL>
0

>  <SCORE.INTRA.REPUL.0>
0

>  <SCORE.INTRA.SOLV>
0.424571

>  <SCORE.INTRA.SOLV.lig_0>
-82.6983

>  <SCORE.INTRA.VDW>
-1.22924

>  <SCORE.INTRA.VDW.0>
-2.11466

>  <SCORE.INTRA.norm>
-0.18966

>  <SCORE.RESTR>
0

>  <SCORE.RESTR.CAVITY>
0

>  <SCORE.RESTR.norm>
0

>  <SCORE.SYSTEM>
0

>  <SCORE.SYSTEM.CONST>
0

>  <SCORE.SYSTEM.DIHEDRAL>
0

>  <SCORE.SYSTEM.SOLV>
0

>  <SCORE.SYSTEM.norm>
0

>  <SCORE.heavy>
26

>  <SCORE.norm>
-0.838941

>  <RMSD>
7.853

$$$$
ligand
 OpenBabel11021811423D
libRbt.so/2013.1/901 2013/11/27
 26 27  0  0  0  0  0  0  0  0999 V2000
   -3.2233  -22.3324  -96.1691 C   0  0  0  0  0  0  0  0  0  0  0  0
   -1.3584  -15.3350 -100.6073 C   0  0  0  0  0  0  0  0  0  0  0  0
    0.3342  -10.6474  -98.1000 P   0  0  2  0  0  0  0  0  0  0  0  0
    0.9850   -7.9976  -98.5753 P   0  0  2  0  0  0  0  0  0  0  0  0
   -2.8308  -18.0483  -99.9583 C   0  0  0  0  0  0  0  0  0  0  0  0
   -4.1112  -19.7589  -98.6954 C   0  0  0  0  0  0  0  0  0  0  0  0
   -2.8863  -19.1513  -98.9390 C   0  0  0  0  0  0  0  0  0  0  0  0
   -1.7536  -19.6248  -98.2702 C   0  0  0  0  0  0  0  0  0  0  0  0
   -0.5260  -19.1303  -98.4325 N   0  0  0  0  0  0  0  0  0  0  0  0
   -1.8897  -20.6596  -97.3814 N   0  0  0  0  0  0  0  0  0  0  0  0
   -3.1117  -21.2246  -97.1478 C   0  0  0  0  0  0  0  0  0  0  0  0
   -4.2266  -20.7950  -97.7936 N   0  0  0  0  0  0  0  0  0  0  0  0
    0.4629  -10.5775  -96.5911 O   0  5  0  0  0  0  0  0  0  0  0  0
    1.4324   -7.8555  -97.1378 O   0  0  0  0  0  0  0  0  0  0  0  0
   -4.3141  -14.9548  -98.0613 S   0  0  0  0  0  0  0  0  0  0  0  0
   -4.1624  -16.5052  -98.5403 C   0  0  0  0  0  0  0  0  0  0  0  0
    1.6454  -11.2347  -98.6153 O   0  0  0  0  0  0  0  0  0  0  0  0
    0.2950   -6.7450  -99.0758 O   0  5  0  0  0  0  0  0  0  0  0  0
   -3.1470  -16.7352  -99.4494 N   0  0  0  0  0  0  0  0  0  0  0  0
   -0.0882   -9.1758  -98.6120 O   0  0  0  0  0  0  0  0  0  0  0  0
    2.2016   -8.3115  -99.4221 O   0  0  0  0  0  0  0  0  0  0  0  0
   -2.5112  -15.5460  -99.7084 C   0  0  1  0  0  0  0  0  0  0  0  0
   -3.0881  -14.4963  -98.9764 C   0  0  2  0  0  0  0  0  0  0  0  0
   -2.8175  -13.0184  -98.8388 C   0  0  0  0  0  0  0  0  0  0  0  0
   -1.3687  -12.7545  -98.4151 C   0  0  0  0  0  0  0  0  0  0  0  0
   -1.1071  -11.3575  -98.4689 O   0  0  0  0  0  0  0  0  0  0  0  0
  1 11  1  0  0  0  0
  3 13  1  1  0  0  0
  3 17  2  0  0  0  0
  3 20  1  0  0  0  0
  3 26  1  0  0  0  0
  4 14  1  1  0  0  0
  4 18  1  0  0  0  0
  4 21  2  0  0  0  0
  4 20  1  0  0  0  0
  5 19  1  0  0  0  0
  5  7  1  0  0  0  0
  6  7  2  0  0  0  0
  6 12  1  0  0  0  0
  7  8  1  0  0  0  0
  8  9  1  0  0  0  0
  8 10  2  0  0  0  0
 10 11  1  0  0  0  0
 11 12  2  0  0  0  0
 15 23  1  0  0  0  0
 15 16  1  0  0  0  0
 16 19  1  0  0  0  0
 19 22  1  0  0  0  0
 22  2  1  1  0  0  0
 22 23  1  0  0  0  0
 23 24  1  1  0  0  0
 24 25  1  0  0  0  0
 25 26  1  0  0  0  0
M  CHG  2  13  -1  18  -1
M  END
>  <CHROM.1>
71.85632872,-40.36851201,86.00443768,-58.50118857,123.90872083,172.36067435
-179.62193456,-78.16413673,-1.39658805,-14.06334664,-98.42212694,-1.92537236
-0.25686143,-0.12298793

>  <Name>
ligand

>  <RI>
0

>  <Rbt.Current_Directory>
/home/itssahil/PROJECTS/Mol_Feturizer/New_Systems/rnas/2CKY

>  <Rbt.Executable>
rbdock ($Id: //depot/dev/client3/rdock/2013.1/src/exe/rbdock.cxx#4 $)

>  <Rbt.Library>
libRbt.so (2013.1, Build901 2013/11/27)

>  <Rbt.Parameter_File>
/export/apps/rDock/src/rDock_2013.1_src/data/scripts/dock_solv.prm

>  <Rbt.Receptor>
prm/pocket_docking_7.prm

>  <SCORE>
-20.7356

>  <SCORE.INTER>
-14.3626

>  <SCORE.INTER.CONST>
1

>  <SCORE.INTER.POLAR>
0

>  <SCORE.INTER.ROT>
8

>  <SCORE.INTER.SOLV>
7.4014

>  <SCORE.INTER.VDW>
-20.9755

>  <SCORE.INTER.norm>
-0.552408

>  <SCORE.INTRA>
-6.37297

>  <SCORE.INTRA.DIHEDRAL>
-11.024

>  <SCORE.INTRA.DIHEDRAL.0>
16.4846

>  <SCORE.INTRA.POLAR>
0

>  <SCORE.INTRA.POLAR.0>
0

>  <SCORE.INTRA.REPUL>
0

>  <SCORE.INTRA.REPUL.0>
0

>  <SCORE.INTRA.SOLV>
0.658208

>  <SCORE.INTRA.SOLV.lig_0>
-82.6983

>  <SCORE.INTRA.VDW>
-1.19006

>  <SCORE.INTRA.VDW.0>
-2.11466

>  <SCORE.INTRA.norm>
-0.245114

>  <SCORE.RESTR>
0

>  <SCORE.RESTR.CAVITY>
0

>  <SCORE.RESTR.norm>
0

>  <SCORE.SYSTEM>
0

>  <SCORE.SYSTEM.CONST>
0

>  <SCORE.SYSTEM.DIHEDRAL>
0

>  <SCORE.SYSTEM.SOLV>
0

>  <SCORE.SYSTEM.norm>
0

>  <SCORE.heavy>
26

>  <SCORE.norm>
-0.797523

>  <RMSD>
7.877

$$$$
ligand
 OpenBabel11021811423D
libRbt.so/2013.1/901 2013/11/27
 26 27  0  0  0  0  0  0  0  0999 V2000
    0.4860  -11.2391  -92.4562 C   0  0  0  0  0  0  0  0  0  0  0  0
   -0.8392  -14.3344  -96.7623 C   0  0  0  0  0  0  0  0  0  0  0  0
    0.0075  -19.4181  -99.0272 P   0  0  2  0  0  0  0  0  0  0  0  0
   -1.5539  -21.4611  -97.9982 P   0  0  2  0  0  0  0  0  0  0  0  0
   -2.1749  -11.5796  -97.5226 C   0  0  0  0  0  0  0  0  0  0  0  0
   -2.0996  -11.8347  -95.0549 C   0  0  0  0  0  0  0  0  0  0  0  0
   -1.4428  -11.4497  -96.2165 C   0  0  0  0  0  0  0  0  0  0  0  0
   -0.1180  -11.0120  -96.1289 C   0  0  0  0  0  0  0  0  0  0  0  0
    0.6160  -10.6305  -97.1746 N   0  0  0  0  0  0  0  0  0  0  0  0
    0.4849  -10.9576  -94.8989 N   0  0  0  0  0  0  0  0  0  0  0  0
   -0.1934  -11.3245  -93.7709 C   0  0  0  0  0  0  0  0  0  0  0  0
   -1.4761  -11.7674  -93.8274 N   0  0  0  0  0  0  0  0  0  0  0  0
   -0.3495  -19.9402 -100.4049 O   0  5  0  0  0  0  0  0  0  0  0  0
   -1.4547  -22.4898  -96.8943 O   0  0  0  0  0  0  0  0  0  0  0  0
   -4.1792  -14.7054  -98.7797 S   0  0  0  0  0  0  0  0  0  0  0  0
   -3.8313  -13.1336  -98.5258 C   0  0  0  0  0  0  0  0  0  0  0  0
    1.3978  -18.8002  -99.1500 O   0  0  0  0  0  0  0  0  0  0  0  0
   -1.6782  -22.1099  -99.3618 O   0  5  0  0  0  0  0  0  0  0  0  0
   -2.6706  -12.9040  -97.8114 N   0  0  0  0  0  0  0  0  0  0  0  0
   -0.1887  -20.6382  -97.9884 O   0  0  0  0  0  0  0  0  0  0  0  0
   -2.7517  -20.5769  -97.7166 O   0  0  0  0  0  0  0  0  0  0  0  0
   -2.0985  -14.1133  -97.5018 C   0  0  1  0  0  0  0  0  0  0  0  0
   -2.8649  -15.1767  -98.0041 C   0  0  2  0  0  0  0  0  0  0  0  0
   -2.7377  -16.6801  -97.9940 C   0  0  0  0  0  0  0  0  0  0  0  0
   -1.4388  -17.1337  -98.6688 C   0  0  0  0  0  0  0  0  0  0  0  0
   -1.2601  -18.5293  -98.4608 O   0  0  0  0  0  0  0  0  0  0  0  0
  1 11  1  0  0  0  0
  3 13  1  6  0  0  0
  3 17  2  0  0  0  0
  3 20  1  0  0  0  0
  3 26  1  0  0  0  0
  4 14  1  1  0  0  0
  4 18  1  0  0  0  0
  4 21  2  0  0  0  0
  4 20  1  0  0  0  0
  5 19  1  0  0  0  0
  5  7  1  0  0  0  0
  6  7  2  0  0  0  0
  6 12  1  0  0  0  0
  7  8  1  0  0  0  0
  8  9  1  0  0  0  0
  8 10  2  0  0  0  0
 10 11  1  0  0  0  0
 11 12  2  0  0  0  0
 15 23  1  0  0  0  0
 15 16  1  0  0  0  0
 16 19  1  0  0  0  0
 19 22  1  0  0  0  0
 22  2  1  6  0  0  0
 22 23  1  0  0  0  0
 23 24  1  6  0  0  0
 24 25  1  0  0  0  0
 25 26  1  0  0  0  0
M  CHG  2  13  -1  18  -1
M  END
>  <CHROM.1>
-50.44644079,147.76033105,-55.91630788,-177.99159539,120.33584634,171.27953158
179.69413472,-89.49249635,-1.36620022,-16.14695839,-97.46267927,-1.56615412
0.69037013,-2.83375739

>  <Name>
ligand

>  <RI>
0

>  <Rbt.Current_Directory>
/home/itssahil/PROJECTS/Mol_Feturizer/New_Systems/rnas/2CKY

>  <Rbt.Executable>
rbdock ($Id: //depot/dev/client3/rdock/2013.1/src/exe/rbdock.cxx#4 $)

>  <Rbt.Library>
libRbt.so (2013.1, Build901 2013/11/27)

>  <Rbt.Parameter_File>
/export/apps/rDock/src/rDock_2013.1_src/data/scripts/dock_solv.prm

>  <Rbt.Receptor>
prm/pocket_docking_8.prm

>  <SCORE>
-17.5775

>  <SCORE.INTER>
-12.8699

>  <SCORE.INTER.CONST>
1

>  <SCORE.INTER.POLAR>
0

>  <SCORE.INTER.ROT>
8

>  <SCORE.INTER.SOLV>
9.70573

>  <SCORE.INTER.VDW>
-20.7485

>  <SCORE.INTER.norm>
-0.494996

>  <SCORE.INTRA>
-4.70756

>  <SCORE.INTRA.DIHEDRAL>
-10.6891

>  <SCORE.INTRA.DIHEDRAL.0>
16.4846

>  <SCORE.INTRA.POLAR>
0

>  <SCORE.INTRA.POLAR.0>
0

>  <SCORE.INTRA.REPUL>
0

>  <SCORE.INTRA.REPUL.0>
0

>  <SCORE.INTRA.SOLV>
2.8765

>  <SCORE.INTRA.SOLV.lig_0>
-82.6983

>  <SCORE.INTRA.VDW>
-0.80127

>  <SCORE.INTRA.VDW.0>
-2.11466

>  <SCORE.INTRA.norm>
-0.18106

>  <SCORE.RESTR>
0

>  <SCORE.RESTR.CAVITY>
0

>  <SCORE.RESTR.norm>
0

>  <SCORE.SYSTEM>
0

>  <SCORE.SYSTEM.CONST>
0

>  <SCORE.SYSTEM.DIHEDRAL>
0

>  <SCORE.SYSTEM.SOLV>
0

>  <SCORE.SYSTEM.norm>
0

>  <SCORE.heavy>
26

>  <SCORE.norm>
-0.676056

>  <RMSD>
7.911

$$$$
ligand
 OpenBabel11021811423D
libRbt.so/2013.1/901 2013/11/27
 26 27  0  0  0  0  0  0  0  0999 V2000
    4.2349  -10.7152 -100.2525 C   0  0  0  0  0  0  0  0  0  0  0  0
    2.2399  -14.8434  -93.2038 C   0  0  0  0  0  0  0  0  0  0  0  0
    0.0884  -19.1632  -97.4334 P   0  0  2  0  0  0  0  0  0  0  0  0
   -1.9849  -17.7190  -98.5676 P   0  0  2  0  0  0  0  0  0  0  0  0
    4.2007  -13.3062  -95.1387 C   0  0  0  0  0  0  0  0  0  0  0  0
    4.9084  -13.1285  -97.5110 C   0  0  0  0  0  0  0  0  0  0  0  0
    4.1976  -12.5771  -96.4529 C   0  0  0  0  0  0  0  0  0  0  0  0
    3.4693  -11.4035  -96.6684 C   0  0  0  0  0  0  0  0  0  0  0  0
    2.7408  -10.7913  -95.7344 N   0  0  0  0  0  0  0  0  0  0  0  0
    3.4946  -10.8230  -97.9101 N   0  0  0  0  0  0  0  0  0  0  0  0
    4.2193  -11.3784  -98.9268 C   0  0  0  0  0  0  0  0  0  0  0  0
    4.9245  -12.5257  -98.7505 N   0  0  0  0  0  0  0  0  0  0  0  0
    0.8174  -19.3921  -98.7427 O   0  5  0  0  0  0  0  0  0  0  0  0
   -1.4665  -18.0323  -99.9532 O   0  0  0  0  0  0  0  0  0  0  0  0
    3.7453  -17.0949  -96.0372 S   0  0  0  0  0  0  0  0  0  0  0  0
    4.2893  -15.5641  -96.1678 C   0  0  0  0  0  0  0  0  0  0  0  0
   -0.7003  -20.4397  -97.1533 O   0  0  0  0  0  0  0  0  0  0  0  0
   -2.5536  -16.3171  -98.4837 O   0  5  0  0  0  0  0  0  0  0  0  0
    3.8029  -14.6917  -95.2125 N   0  0  0  0  0  0  0  0  0  0  0  0
   -0.7351  -17.7825  -97.5802 O   0  0  0  0  0  0  0  0  0  0  0  0
   -3.0412  -18.7457  -98.2128 O   0  0  0  0  0  0  0  0  0  0  0  0
    2.9630  -15.3820  -94.3737 C   0  0  1  0  0  0  0  0  0  0  0  0
    2.8714  -16.7311  -94.7508 C   0  0  2  0  0  0  0  0  0  0  0  0
    2.1410  -17.9393  -94.2186 C   0  0  0  0  0  0  0  0  0  0  0  0
    0.8473  -18.1964  -94.9987 C   0  0  0  0  0  0  0  0  0  0  0  0
    1.1664  -18.5822  -96.3299 O   0  0  0  0  0  0  0  0  0  0  0  0
  1 11  1  0  0  0  0
  3 13  1  6  0  0  0
  3 17  2  0  0  0  0
  3 20  1  0  0  0  0
  3 26  1  0  0  0  0
  4 14  1  6  0  0  0
  4 18  1  0  0  0  0
  4 21  2  0  0  0  0
  4 20  1  0  0  0  0
  5 19  1  0  0  0  0
  5  7  1  0  0  0  0
  6  7  2  0  0  0  0
  6 12  1  0  0  0  0
  7  8  1  0  0  0  0
  8  9  1  0  0  0  0
  8 10  2  0  0  0  0
 10 11  1  0  0  0  0
 11 12  2  0  0  0  0
 15 23  1  0  0  0  0
 15 16  1  0  0  0  0
 16 19  1  0  0  0  0
 19 22  1  0  0  0  0
 22  2  1  1  0  0  0
 22 23  1  0  0  0  0
 23 24  1  1  0  0  0
 24 25  1  0  0  0  0
 25 26  1  0  0  0  0
M  CHG  2  13  -1  18  -1
M  END
>  <CHROM.1>
69.10137080,46.25508863,-53.31517091,-60.45379905,-82.07194943,67.06253921
170.45864408,177.40113360,1.64540828,-15.96104763,-96.98495516,0.59342916
-0.73277261,-0.66387772

>  <Name>
ligand

>  <RI>
0

>  <Rbt.Current_Directory>
/home/itssahil/PROJECTS/Mol_Feturizer/New_Systems/rnas/2CKY

>  <Rbt.Executable>
rbdock ($Id: //depot/dev/client3/rdock/2013.1/src/exe/rbdock.cxx#4 $)

>  <Rbt.Library>
libRbt.so (2013.1, Build901 2013/11/27)

>  <Rbt.Parameter_File>
/export/apps/rDock/src/rDock_2013.1_src/data/scripts/dock_solv.prm

>  <Rbt.Receptor>
prm/pocket_docking_7.prm

>  <SCORE>
-16.5923

>  <SCORE.INTER>
-10.0511

>  <SCORE.INTER.CONST>
1

>  <SCORE.INTER.POLAR>
0

>  <SCORE.INTER.ROT>
8

>  <SCORE.INTER.SOLV>
11.1542

>  <SCORE.INTER.VDW>
-19.3521

>  <SCORE.INTER.norm>
-0.386579

>  <SCORE.INTRA>
-6.54127

>  <SCORE.INTRA.DIHEDRAL>
-10.7538

>  <SCORE.INTRA.DIHEDRAL.0>
16.4846

>  <SCORE.INTRA.POLAR>
0

>  <SCORE.INTRA.POLAR.0>
0

>  <SCORE.INTRA.REPUL>
0

>  <SCORE.INTRA.REPUL.0>
0

>  <SCORE.INTRA.SOLV>
-0.181393

>  <SCORE.INTRA.SOLV.lig_0>
-82.6983

>  <SCORE.INTRA.VDW>
-1.07369

>  <SCORE.INTRA.VDW.0>
-2.11466

>  <SCORE.INTRA.norm>
-0.251587

>  <SCORE.RESTR>
0

>  <SCORE.RESTR.CAVITY>
0

>  <SCORE.RESTR.norm>
0

>  <SCORE.SYSTEM>
0

>  <SCORE.SYSTEM.CONST>
0

>  <SCORE.SYSTEM.DIHEDRAL>
0

>  <SCORE.SYSTEM.SOLV>
0

>  <SCORE.SYSTEM.norm>
0

>  <SCORE.heavy>
26

>  <SCORE.norm>
-0.638167

>  <RMSD>
7.946

$$$$
ligand
 OpenBabel11021811423D
libRbt.so/2013.1/901 2013/11/27
 26 27  0  0  0  0  0  0  0  0999 V2000
    0.6010  -11.6256  -91.4337 C   0  0  0  0  0  0  0  0  0  0  0  0
    0.0644  -12.1780  -98.9256 C   0  0  0  0  0  0  0  0  0  0  0  0
   -1.9587  -18.1347  -99.7234 P   0  0  2  0  0  0  0  0  0  0  0  0
   -3.8977  -20.0029 -100.3717 P   0  0  2  0  0  0  0  0  0  0  0  0
   -1.0875  -10.2269  -96.7307 C   0  0  0  0  0  0  0  0  0  0  0  0
   -1.3334  -11.4770  -94.6007 C   0  0  0  0  0  0  0  0  0  0  0  0
   -0.6181  -10.5426  -95.3383 C   0  0  0  0  0  0  0  0  0  0  0  0
    0.5324   -9.9790  -94.7788 C   0  0  0  0  0  0  0  0  0  0  0  0
    1.3047   -9.0841  -95.3956 N   0  0  0  0  0  0  0  0  0  0  0  0
    0.9079  -10.3506  -93.5138 N   0  0  0  0  0  0  0  0  0  0  0  0
    0.1727  -11.2582  -92.8045 C   0  0  0  0  0  0  0  0  0  0  0  0
   -0.9410  -11.8328  -93.3281 N   0  0  0  0  0  0  0  0  0  0  0  0
   -0.5866  -18.4562 -100.2819 O   0  5  0  0  0  0  0  0  0  0  0  0
   -4.7366  -19.6253  -99.1715 O   0  0  0  0  0  0  0  0  0  0  0  0
   -3.7038  -12.8248  -98.0626 S   0  0  0  0  0  0  0  0  0  0  0  0
   -3.1098  -11.5999  -97.1665 C   0  0  0  0  0  0  0  0  0  0  0  0
   -1.9778  -18.6750  -98.2960 O   0  0  0  0  0  0  0  0  0  0  0  0
   -2.9146  -21.1085 -100.0451 O   0  5  0  0  0  0  0  0  0  0  0  0
   -1.7794  -11.3044  -97.3967 N   0  0  0  0  0  0  0  0  0  0  0  0
   -3.0466  -18.7140 -100.7659 O   0  0  0  0  0  0  0  0  0  0  0  0
   -4.8303  -20.4301 -101.4869 O   0  0  0  0  0  0  0  0  0  0  0  0
   -1.3010  -12.1547  -98.3629 C   0  0  1  0  0  0  0  0  0  0  0  0
   -2.3027  -13.0360  -98.7994 C   0  0  2  0  0  0  0  0  0  0  0  0
   -2.3757  -14.1455  -99.8193 C   0  0  0  0  0  0  0  0  0  0  0  0
   -1.7959  -15.4510  -99.2645 C   0  0  0  0  0  0  0  0  0  0  0  0
   -2.2868  -16.5477 -100.0256 O   0  0  0  0  0  0  0  0  0  0  0  0
  1 11  1  0  0  0  0
  3 13  1  6  0  0  0
  3 17  2  0  0  0  0
  3 20  1  0  0  0  0
  3 26  1  0  0  0  0
  4 14  1  1  0  0  0
  4 18  1  0  0  0  0
  4 21  2  0  0  0  0
  4 20  1  0  0  0  0
  5 19  1  0  0  0  0
  5  7  1  0  0  0  0
  6  7  2  0  0  0  0
  6 12  1  0  0  0  0
  7  8  1  0  0  0  0
  8  9  1  0  0  0  0
  8 10  2  0  0  0  0
 10 11  1  0  0  0  0
 11 12  2  0  0  0  0
 15 23  1  0  0  0  0
 15 16  1  0  0  0  0
 16 19  1  0  0  0  0
 19 22  1  0  0  0  0
 22  2  1  6  0  0  0
 22 23  1  0  0  0  0
 23 24  1  6  0  0  0
 24 25  1  0  0  0  0
 25 26  1  0  0  0  0
M  CHG  2  13  -1  18  -1
M  END
>  <CHROM.1>
108.03946256,80.36183116,-28.49624522,63.60097999,-99.58111563,159.79735926
-177.34893955,-80.04932601,-1.89519456,-14.83176273,-97.88407479,-0.82594480
1.14995140,3.00435452

>  <Name>
ligand

>  <RI>
0

>  <Rbt.Current_Directory>
/home/itssahil/PROJECTS/Mol_Feturizer/New_Systems/rnas/2CKY

>  <Rbt.Executable>
rbdock ($Id: //depot/dev/client3/rdock/2013.1/src/exe/rbdock.cxx#4 $)

>  <Rbt.Library>
libRbt.so (2013.1, Build901 2013/11/27)

>  <Rbt.Parameter_File>
/export/apps/rDock/src/rDock_2013.1_src/data/scripts/dock_solv.prm

>  <Rbt.Receptor>
prm/pocket_docking_7.prm

>  <SCORE>
-22.3066

>  <SCORE.INTER>
-17.2007

>  <SCORE.INTER.CONST>
1

>  <SCORE.INTER.POLAR>
0

>  <SCORE.INTER.ROT>
8

>  <SCORE.INTER.SOLV>
17.2948

>  <SCORE.INTER.VDW>
-26.1654

>  <SCORE.INTER.norm>
-0.661565

>  <SCORE.INTRA>
-5.10596

>  <SCORE.INTRA.DIHEDRAL>
-7.65252

>  <SCORE.INTRA.DIHEDRAL.0>
16.4846

>  <SCORE.INTRA.POLAR>
0

>  <SCORE.INTRA.POLAR.0>
0

>  <SCORE.INTRA.REPUL>
0

>  <SCORE.INTRA.REPUL.0>
0

>  <SCORE.INTRA.SOLV>
0.0115637

>  <SCORE.INTRA.SOLV.lig_0>
-82.6983

>  <SCORE.INTRA.VDW>
-1.28548

>  <SCORE.INTRA.VDW.0>
-2.11466

>  <SCORE.INTRA.norm>
-0.196383

>  <SCORE.RESTR>
0

>  <SCORE.RESTR.CAVITY>
0

>  <SCORE.RESTR.norm>
0

>  <SCORE.SYSTEM>
0

>  <SCORE.SYSTEM.CONST>
0

>  <SCORE.SYSTEM.DIHEDRAL>
0

>  <SCORE.SYSTEM.SOLV>
0

>  <SCORE.SYSTEM.norm>
0

>  <SCORE.heavy>
26

>  <SCORE.norm>
-0.857948

>  <RMSD>
7.950

$$$$
ligand
 OpenBabel11021811423D
libRbt.so/2013.1/901 2013/11/27
 26 27  0  0  0  0  0  0  0  0999 V2000
   -3.5741  -22.2289  -96.4170 C   0  0  0  0  0  0  0  0  0  0  0  0
   -1.1948  -15.0773 -100.4921 C   0  0  0  0  0  0  0  0  0  0  0  0
   -0.4432  -12.5384  -95.5898 P   0  0  2  0  0  0  0  0  0  0  0  0
    0.4585  -10.0237  -94.8591 P   0  0  2  0  0  0  0  0  0  0  0  0
   -2.6365  -17.8357  -99.9787 C   0  0  0  0  0  0  0  0  0  0  0  0
   -4.1092  -19.5126  -98.8926 C   0  0  0  0  0  0  0  0  0  0  0  0
   -2.8360  -18.9712  -99.0146 C   0  0  0  0  0  0  0  0  0  0  0  0
   -1.7892  -19.5372  -98.2810 C   0  0  0  0  0  0  0  0  0  0  0  0
   -0.5264  -19.1119  -98.3266 N   0  0  0  0  0  0  0  0  0  0  0  0
   -2.0546  -20.5949  -97.4502 N   0  0  0  0  0  0  0  0  0  0  0  0
   -3.3217  -21.0936  -97.3361 C   0  0  0  0  0  0  0  0  0  0  0  0
   -4.3552  -20.5733  -98.0474 N   0  0  0  0  0  0  0  0  0  0  0  0
   -0.9915  -12.9171  -94.2281 O   0  5  0  0  0  0  0  0  0  0  0  0
   -0.1154   -8.6247  -94.8575 O   0  0  0  0  0  0  0  0  0  0  0  0
   -4.3252  -14.8078  -98.1488 S   0  0  0  0  0  0  0  0  0  0  0  0
   -4.1009  -16.3469  -98.6356 C   0  0  0  0  0  0  0  0  0  0  0  0
    0.9360  -13.1845  -95.6913 O   0  0  0  0  0  0  0  0  0  0  0  0
    1.8109  -10.0759  -95.5401 O   0  5  0  0  0  0  0  0  0  0  0  0
   -3.0207  -16.5383  -99.4762 N   0  0  0  0  0  0  0  0  0  0  0  0
   -0.5362  -10.9314  -95.7121 O   0  0  0  0  0  0  0  0  0  0  0  0
    0.5656  -10.4943  -93.4228 O   0  0  0  0  0  0  0  0  0  0  0  0
   -2.4000  -15.3300  -99.6764 C   0  0  1  0  0  0  0  0  0  0  0  0
   -3.0523  -14.3056  -98.9725 C   0  0  2  0  0  0  0  0  0  0  0  0
   -2.8304  -12.8234  -98.7983 C   0  0  0  0  0  0  0  0  0  0  0  0
   -1.4928  -12.5380  -98.1072 C   0  0  0  0  0  0  0  0  0  0  0  0
   -1.6006  -12.8456  -96.7227 O   0  0  0  0  0  0  0  0  0  0  0  0
  1 11  1  0  0  0  0
  3 13  1  1  0  0  0
  3 17  2  0  0  0  0
  3 20  1  0  0  0  0
  3 26  1  0  0  0  0
  4 14  1  6  0  0  0
  4 18  1  0  0  0  0
  4 21  2  0  0  0  0
  4 20  1  0  0  0  0
  5 19  1  0  0  0  0
  5  7  1  0  0  0  0
  6  7  2  0  0  0  0
  6 12  1  0  0  0  0
  7  8  1  0  0  0  0
  8  9  1  0  0  0  0
  8 10  2  0  0  0  0
 10 11  1  0  0  0  0
 11 12  2  0  0  0  0
 15 23  1  0  0  0  0
 15 16  1  0  0  0  0
 16 19  1  0  0  0  0
 19 22  1  0  0  0  0
 22  2  1  1  0  0  0
 22 23  1  0  0  0  0
 23 24  1  1  0  0  0
 24 25  1  0  0  0  0
 25 26  1  0  0  0  0
M  CHG  2  13  -1  18  -1
M  END
>  <CHROM.1>
71.96008830,-35.70251621,81.16482599,-163.67059655,116.61802538,-74.67676583
-173.37289204,175.60935885,-1.68656322,-14.78519373,-97.15297386,-2.20015926
-0.97652789,-0.19843105

>  <Name>
ligand

>  <RI>
0

>  <Rbt.Current_Directory>
/home/itssahil/PROJECTS/Mol_Feturizer/New_Systems/rnas/2CKY

>  <Rbt.Executable>
rbdock ($Id: //depot/dev/client3/rdock/2013.1/src/exe/rbdock.cxx#4 $)

>  <Rbt.Library>
libRbt.so (2013.1, Build901 2013/11/27)

>  <Rbt.Parameter_File>
/export/apps/rDock/src/rDock_2013.1_src/data/scripts/dock_solv.prm

>  <Rbt.Receptor>
prm/pocket_docking_7.prm

>  <SCORE>
-21.1304

>  <SCORE.INTER>
-15.4187

>  <SCORE.INTER.CONST>
1

>  <SCORE.INTER.POLAR>
0

>  <SCORE.INTER.ROT>
8

>  <SCORE.INTER.SOLV>
8.73451

>  <SCORE.INTER.VDW>
-22.124

>  <SCORE.INTER.norm>
-0.593027

>  <SCORE.INTRA>
-5.71166

>  <SCORE.INTRA.DIHEDRAL>
-10.1776

>  <SCORE.INTRA.DIHEDRAL.0>
16.4846

>  <SCORE.INTRA.POLAR>
0

>  <SCORE.INTRA.POLAR.0>
0

>  <SCORE.INTRA.REPUL>
0

>  <SCORE.INTRA.REPUL.0>
0

>  <SCORE.INTRA.SOLV>
1.8427

>  <SCORE.INTRA.SOLV.lig_0>
-82.6983

>  <SCORE.INTRA.VDW>
-1.54419

>  <SCORE.INTRA.VDW.0>
-2.11466

>  <SCORE.INTRA.norm>
-0.219679

>  <SCORE.RESTR>
0

>  <SCORE.RESTR.CAVITY>
0

>  <SCORE.RESTR.norm>
0

>  <SCORE.SYSTEM>
0

>  <SCORE.SYSTEM.CONST>
0

>  <SCORE.SYSTEM.DIHEDRAL>
0

>  <SCORE.SYSTEM.SOLV>
0

>  <SCORE.SYSTEM.norm>
0

>  <SCORE.heavy>
26

>  <SCORE.norm>
-0.812706

>  <RMSD>
7.968

$$$$
ligand
 OpenBabel11021811423D
libRbt.so/2013.1/901 2013/11/27
 26 27  0  0  0  0  0  0  0  0999 V2000
    1.0259   -8.2814  -97.5805 C   0  0  0  0  0  0  0  0  0  0  0  0
   -2.5686  -15.4235  -95.7528 C   0  0  0  0  0  0  0  0  0  0  0  0
   -1.0106  -18.2300  -98.0848 P   0  0  2  0  0  0  0  0  0  0  0  0
    1.5948  -17.4230  -98.5656 P   0  0  2  0  0  0  0  0  0  0  0  0
   -2.6641  -12.2704  -95.7539 C   0  0  0  0  0  0  0  0  0  0  0  0
   -1.8120  -10.6737  -97.4523 C   0  0  0  0  0  0  0  0  0  0  0  0
   -1.6574  -11.2460  -96.1963 C   0  0  0  0  0  0  0  0  0  0  0  0
   -0.6104  -10.8084  -95.3799 C   0  0  0  0  0  0  0  0  0  0  0  0
   -0.3714  -11.2738  -94.1535 N   0  0  0  0  0  0  0  0  0  0  0  0
    0.2420   -9.8434  -95.8508 N   0  0  0  0  0  0  0  0  0  0  0  0
    0.0762   -9.3128  -97.0991 C   0  0  0  0  0  0  0  0  0  0  0  0
   -0.9404   -9.7081  -97.9083 N   0  0  0  0  0  0  0  0  0  0  0  0
   -1.9516  -18.3102  -96.8990 O   0  5  0  0  0  0  0  0  0  0  0  0
    1.8033  -18.7439  -99.2715 O   0  0  0  0  0  0  0  0  0  0  0  0
   -4.0500  -13.8923  -99.0428 S   0  0  0  0  0  0  0  0  0  0  0  0
   -3.6446  -12.7150  -97.9912 C   0  0  0  0  0  0  0  0  0  0  0  0
   -0.9951  -19.6205  -98.7144 O   0  0  0  0  0  0  0  0  0  0  0  0
    2.8082  -17.0230  -97.7511 O   0  5  0  0  0  0  0  0  0  0  0  0
   -3.1197  -13.1621  -96.7935 N   0  0  0  0  0  0  0  0  0  0  0  0
    0.3871  -17.6285  -97.5456 O   0  0  0  0  0  0  0  0  0  0  0  0
    1.2827  -16.3708  -99.6102 O   0  0  0  0  0  0  0  0  0  0  0  0
   -3.0745  -14.5343  -96.8182 C   0  0  1  0  0  0  0  0  0  0  0  0
   -3.5677  -15.0328  -98.0342 C   0  0  2  0  0  0  0  0  0  0  0  0
   -3.7458  -16.4083  -98.6283 C   0  0  0  0  0  0  0  0  0  0  0  0
   -2.6504  -16.7178  -99.6543 C   0  0  0  0  0  0  0  0  0  0  0  0
   -1.4116  -16.9060  -98.9813 O   0  0  0  0  0  0  0  0  0  0  0  0
  1 11  1  0  0  0  0
  3 13  1  1  0  0  0
  3 17  2  0  0  0  0
  3 20  1  0  0  0  0
  3 26  1  0  0  0  0
  4 14  1  6  0  0  0
  4 18  1  0  0  0  0
  4 21  2  0  0  0  0
  4 20  1  0  0  0  0
  5 19  1  0  0  0  0
  5  7  1  0  0  0  0
  6  7  2  0  0  0  0
  6 12  1  0  0  0  0
  7  8  1  0  0  0  0
  8  9  1  0  0  0  0
  8 10  2  0  0  0  0
 10 11  1  0  0  0  0
 11 12  2  0  0  0  0
 15 23  1  0  0  0  0
 15 16  1  0  0  0  0
 16 19  1  0  0  0  0
 19 22  1  0  0  0  0
 22  2  1  6  0  0  0
 22 23  1  0  0  0  0
 23 24  1  6  0  0  0
 24 25  1  0  0  0  0
 25 26  1  0  0  0  0
M  CHG  2  13  -1  18  -1
M  END
>  <CHROM.1>
179.90030072,-53.75671520,37.94675318,-52.77469993,76.93142395,70.76983116
73.47769005,-63.51407235,-1.10358614,-14.74060957,-97.69343546,-1.69024929
0.03788607,-2.89805869

>  <Name>
ligand

>  <RI>
0

>  <Rbt.Current_Directory>
/home/itssahil/PROJECTS/Mol_Feturizer/New_Systems/rnas/2CKY

>  <Rbt.Executable>
rbdock ($Id: //depot/dev/client3/rdock/2013.1/src/exe/rbdock.cxx#4 $)

>  <Rbt.Library>
libRbt.so (2013.1, Build901 2013/11/27)

>  <Rbt.Parameter_File>
/export/apps/rDock/src/rDock_2013.1_src/data/scripts/dock_solv.prm

>  <Rbt.Receptor>
prm/pocket_docking_7.prm

>  <SCORE>
-18.6303

>  <SCORE.INTER>
-12.9023

>  <SCORE.INTER.CONST>
1

>  <SCORE.INTER.POLAR>
0

>  <SCORE.INTER.ROT>
8

>  <SCORE.INTER.SOLV>
10.8092

>  <SCORE.INTER.VDW>
-21.138

>  <SCORE.INTER.norm>
-0.496243

>  <SCORE.INTRA>
-5.72793

>  <SCORE.INTRA.DIHEDRAL>
-10.1145

>  <SCORE.INTRA.DIHEDRAL.0>
16.4846

>  <SCORE.INTRA.POLAR>
0

>  <SCORE.INTRA.POLAR.0>
0

>  <SCORE.INTRA.REPUL>
0

>  <SCORE.INTRA.REPUL.0>
0

>  <SCORE.INTRA.SOLV>
1.48127

>  <SCORE.INTRA.SOLV.lig_0>
-82.6983

>  <SCORE.INTRA.VDW>
-1.41133

>  <SCORE.INTRA.VDW.0>
-2.11466

>  <SCORE.INTRA.norm>
-0.220305

>  <SCORE.RESTR>
0

>  <SCORE.RESTR.CAVITY>
0

>  <SCORE.RESTR.norm>
0

>  <SCORE.SYSTEM>
0

>  <SCORE.SYSTEM.CONST>
0

>  <SCORE.SYSTEM.DIHEDRAL>
0

>  <SCORE.SYSTEM.SOLV>
0

>  <SCORE.SYSTEM.norm>
0

>  <SCORE.heavy>
26

>  <SCORE.norm>
-0.716548

>  <RMSD>
7.977

$$$$
ligand
 OpenBabel11021811423D
libRbt.so/2013.1/901 2013/11/27
 26 27  0  0  0  0  0  0  0  0999 V2000
    3.3546  -21.0135 -101.7638 C   0  0  0  0  0  0  0  0  0  0  0  0
   -2.5535  -18.1131  -98.4250 C   0  0  0  0  0  0  0  0  0  0  0  0
    0.6971  -14.7579  -98.0043 P   0  0  2  0  0  0  0  0  0  0  0  0
   -1.1732  -12.7393  -98.3167 P   0  0  2  0  0  0  0  0  0  0  0  0
   -1.3563  -21.0308  -98.4968 C   0  0  0  0  0  0  0  0  0  0  0  0
    0.8250  -20.0840  -99.2084 C   0  0  0  0  0  0  0  0  0  0  0  0
   -0.1507  -21.0549  -99.3939 C   0  0  0  0  0  0  0  0  0  0  0  0
    0.0541  -22.0401 -100.3643 C   0  0  0  0  0  0  0  0  0  0  0  0
   -0.8038  -23.0277 -100.6224 N   0  0  0  0  0  0  0  0  0  0  0  0
    1.2005  -22.0064 -101.1154 N   0  0  0  0  0  0  0  0  0  0  0  0
    2.1336  -21.0268 -100.9233 C   0  0  0  0  0  0  0  0  0  0  0  0
    1.9683  -20.0655  -99.9781 N   0  0  0  0  0  0  0  0  0  0  0  0
    2.0269  -14.9109  -97.2928 O   0  5  0  0  0  0  0  0  0  0  0  0
   -2.2070  -13.8313  -98.4764 O   0  0  0  0  0  0  0  0  0  0  0  0
   -0.6253  -19.1068  -95.1603 S   0  0  0  0  0  0  0  0  0  0  0  0
   -0.6201  -20.3369  -96.2294 C   0  0  0  0  0  0  0  0  0  0  0  0
    0.9879  -14.9142  -99.4946 O   0  0  0  0  0  0  0  0  0  0  0  0
   -0.6299  -12.2794  -99.6542 O   0  5  0  0  0  0  0  0  0  0  0  0
   -1.2869  -20.0807  -97.4125 N   0  0  0  0  0  0  0  0  0  0  0  0
    0.0440  -13.3694  -97.5028 O   0  0  0  0  0  0  0  0  0  0  0  0
   -1.8142  -11.5839  -97.5752 O   0  0  0  0  0  0  0  0  0  0  0  0
   -1.7887  -18.8033  -97.3665 C   0  0  1  0  0  0  0  0  0  0  0  0
   -1.4664  -18.1787  -96.1514 C   0  0  2  0  0  0  0  0  0  0  0  0
   -1.7207  -16.8175  -95.5524 C   0  0  0  0  0  0  0  0  0  0  0  0
   -0.5672  -15.8536  -95.8503 C   0  0  0  0  0  0  0  0  0  0  0  0
   -0.4090  -15.7259  -97.2579 O   0  0  0  0  0  0  0  0  0  0  0  0
  1 11  1  0  0  0  0
  3 13  1  1  0  0  0
  3 17  2  0  0  0  0
  3 20  1  0  0  0  0
  3 26  1  0  0  0  0
  4 14  1  6  0  0  0
  4 18  1  0  0  0  0
  4 21  2  0  0  0  0
  4 20  1  0  0  0  0
  5 19  1  0  0  0  0
  5  7  1  0  0  0  0
  6  7  2  0  0  0  0
  6 12  1  0  0  0  0
  7  8  1  0  0  0  0
  8  9  1  0  0  0  0
  8 10  2  0  0  0  0
 10 11  1  0  0  0  0
 11 12  2  0  0  0  0
 15 23  1  0  0  0  0
 15 16  1  0  0  0  0
 16 19  1  0  0  0  0
 19 22  1  0  0  0  0
 22  2  1  6  0  0  0
 22 23  1  0  0  0  0
 23 24  1  6  0  0  0
 24 25  1  0  0  0  0
 25 26  1  0  0  0  0
M  CHG  2  13  -1  18  -1
M  END
>  <CHROM.1>
165.03722061,-81.84882008,-7.41612433,51.44347986,87.12087546,59.07206430
178.52599816,43.96404841,-0.24615595,-17.32068256,-98.21030041,-1.30489814
0.99706153,-0.01180573

>  <Name>
ligand

>  <RI>
0

>  <Rbt.Current_Directory>
/home/itssahil/PROJECTS/Mol_Feturizer/New_Systems/rnas/2CKY

>  <Rbt.Executable>
rbdock ($Id: //depot/dev/client3/rdock/2013.1/src/exe/rbdock.cxx#4 $)

>  <Rbt.Library>
libRbt.so (2013.1, Build901 2013/11/27)

>  <Rbt.Parameter_File>
/export/apps/rDock/src/rDock_2013.1_src/data/scripts/dock_solv.prm

>  <Rbt.Receptor>
prm/pocket_docking_8.prm

>  <SCORE>
-16.2055

>  <SCORE.INTER>
-8.36421

>  <SCORE.INTER.CONST>
1

>  <SCORE.INTER.POLAR>
0

>  <SCORE.INTER.ROT>
8

>  <SCORE.INTER.SOLV>
8.91179

>  <SCORE.INTER.VDW>
-17.4801

>  <SCORE.INTER.norm>
-0.3217

>  <SCORE.INTRA>
-7.84124

>  <SCORE.INTRA.DIHEDRAL>
-10.7396

>  <SCORE.INTRA.DIHEDRAL.0>
16.4846

>  <SCORE.INTRA.POLAR>
0

>  <SCORE.INTRA.POLAR.0>
0

>  <SCORE.INTRA.REPUL>
0

>  <SCORE.INTRA.REPUL.0>
0

>  <SCORE.INTRA.SOLV>
-1.00982

>  <SCORE.INTRA.SOLV.lig_0>
-82.6983

>  <SCORE.INTRA.VDW>
-1.96652

>  <SCORE.INTRA.VDW.0>
-2.11466

>  <SCORE.INTRA.norm>
-0.301586

>  <SCORE.RESTR>
0

>  <SCORE.RESTR.CAVITY>
0

>  <SCORE.RESTR.norm>
0

>  <SCORE.SYSTEM>
0

>  <SCORE.SYSTEM.CONST>
0

>  <SCORE.SYSTEM.DIHEDRAL>
0

>  <SCORE.SYSTEM.SOLV>
0

>  <SCORE.SYSTEM.norm>
0

>  <SCORE.heavy>
26

>  <SCORE.norm>
-0.623287

>  <RMSD>
7.995

$$$$
ligand
 OpenBabel11021811423D
libRbt.so/2013.1/901 2013/11/27
 26 27  0  0  0  0  0  0  0  0999 V2000
   -3.5438  -22.2315  -96.5588 C   0  0  0  0  0  0  0  0  0  0  0  0
   -1.0832  -15.1164 -100.3778 C   0  0  0  0  0  0  0  0  0  0  0  0
   -0.1547  -13.4521  -95.5780 P   0  0  2  0  0  0  0  0  0  0  0  0
    0.4164  -11.3554  -93.8610 P   0  0  2  0  0  0  0  0  0  0  0  0
   -2.7314  -17.7909 -100.0924 C   0  0  0  0  0  0  0  0  0  0  0  0
   -4.1778  -19.4067  -98.8851 C   0  0  0  0  0  0  0  0  0  0  0  0
   -2.8939  -18.9428  -99.1409 C   0  0  0  0  0  0  0  0  0  0  0  0
   -1.8098  -19.5976  -98.5490 C   0  0  0  0  0  0  0  0  0  0  0  0
   -0.5350  -19.2514  -98.7308 N   0  0  0  0  0  0  0  0  0  0  0  0
   -2.0477  -20.6633  -97.7202 N   0  0  0  0  0  0  0  0  0  0  0  0
   -3.3237  -21.0846  -97.4719 C   0  0  0  0  0  0  0  0  0  0  0  0
   -4.3951  -20.4771  -98.0443 N   0  0  0  0  0  0  0  0  0  0  0  0
   -1.0988  -14.0779  -94.5704 O   0  5  0  0  0  0  0  0  0  0  0  0
   -0.6009  -11.7849  -92.8280 O   0  0  0  0  0  0  0  0  0  0  0  0
   -4.3152  -14.7507  -98.1907 S   0  0  0  0  0  0  0  0  0  0  0  0
   -4.1666  -16.2748  -98.7485 C   0  0  0  0  0  0  0  0  0  0  0  0
    1.1537  -14.2323  -95.4814 O   0  0  0  0  0  0  0  0  0  0  0  0
    0.5318   -9.8469  -93.9432 O   0  5  0  0  0  0  0  0  0  0  0  0
   -3.0561  -16.4974  -99.5405 N   0  0  0  0  0  0  0  0  0  0  0  0
   -0.1142  -11.8671  -95.2744 O   0  0  0  0  0  0  0  0  0  0  0  0
    1.7512  -11.9738  -93.4981 O   0  0  0  0  0  0  0  0  0  0  0  0
   -2.3463  -15.3263  -99.6415 C   0  0  1  0  0  0  0  0  0  0  0  0
   -2.9677  -14.2964  -98.9178 C   0  0  2  0  0  0  0  0  0  0  0  0
   -2.6579  -12.8440  -98.6514 C   0  0  0  0  0  0  0  0  0  0  0  0
   -2.1791  -12.6317  -97.2113 C   0  0  0  0  0  0  0  0  0  0  0  0
   -0.9453  -13.3122  -97.0178 O   0  0  0  0  0  0  0  0  0  0  0  0
  1 11  1  0  0  0  0
  3 13  1  1  0  0  0
  3 17  2  0  0  0  0
  3 20  1  0  0  0  0
  3 26  1  0  0  0  0
  4 14  1  1  0  0  0
  4 18  1  0  0  0  0
  4 21  2  0  0  0  0
  4 20  1  0  0  0  0
  5 19  1  0  0  0  0
  5  7  1  0  0  0  0
  6  7  2  0  0  0  0
  6 12  1  0  0  0  0
  7  8  1  0  0  0  0
  8  9  1  0  0  0  0
  8 10  2  0  0  0  0
 10 11  1  0  0  0  0
 11 12  2  0  0  0  0
 15 23  1  0  0  0  0
 15 16  1  0  0  0  0
 16 19  1  0  0  0  0
 19 22  1  0  0  0  0
 22  2  1  1  0  0  0
 22 23  1  0  0  0  0
 23 24  1  1  0  0  0
 24 25  1  0  0  0  0
 25 26  1  0  0  0  0
M  CHG  2  13  -1  18  -1
M  END
>  <CHROM.1>
61.70852788,-43.17441443,77.15530718,-68.19598760,72.67638537,64.41834136
-174.31280779,55.92025708,-1.66435007,-15.25532882,-96.95530166,-2.27773984
-0.98736356,-0.12900021

>  <Name>
ligand

>  <RI>
0

>  <Rbt.Current_Directory>
/home/itssahil/PROJECTS/Mol_Feturizer/New_Systems/rnas/2CKY

>  <Rbt.Executable>
rbdock ($Id: //depot/dev/client3/rdock/2013.1/src/exe/rbdock.cxx#4 $)

>  <Rbt.Library>
libRbt.so (2013.1, Build901 2013/11/27)

>  <Rbt.Parameter_File>
/export/apps/rDock/src/rDock_2013.1_src/data/scripts/dock_solv.prm

>  <Rbt.Receptor>
prm/pocket_docking_7.prm

>  <SCORE>
-21.8432

>  <SCORE.INTER>
-15.5333

>  <SCORE.INTER.CONST>
1

>  <SCORE.INTER.POLAR>
0

>  <SCORE.INTER.ROT>
8

>  <SCORE.INTER.SOLV>
7.94356

>  <SCORE.INTER.VDW>
-21.9367

>  <SCORE.INTER.norm>
-0.597435

>  <SCORE.INTRA>
-6.30986

>  <SCORE.INTRA.DIHEDRAL>
-10.8422

>  <SCORE.INTRA.DIHEDRAL.0>
16.4846

>  <SCORE.INTRA.POLAR>
0

>  <SCORE.INTRA.POLAR.0>
0

>  <SCORE.INTRA.REPUL>
0

>  <SCORE.INTRA.REPUL.0>
0

>  <SCORE.INTRA.SOLV>
0.659382

>  <SCORE.INTRA.SOLV.lig_0>
-82.6983

>  <SCORE.INTRA.VDW>
-1.21843

>  <SCORE.INTRA.VDW.0>
-2.11466

>  <SCORE.INTRA.norm>
-0.242687

>  <SCORE.RESTR>
0

>  <SCORE.RESTR.CAVITY>
0

>  <SCORE.RESTR.norm>
0

>  <SCORE.SYSTEM>
0

>  <SCORE.SYSTEM.CONST>
0

>  <SCORE.SYSTEM.DIHEDRAL>
0

>  <SCORE.SYSTEM.SOLV>
0

>  <SCORE.SYSTEM.norm>
0

>  <SCORE.heavy>
26

>  <SCORE.norm>
-0.840122

>  <RMSD>
8.036

$$$$
ligand
 OpenBabel11021811423D
libRbt.so/2013.1/901 2013/11/27
 26 27  0  0  0  0  0  0  0  0999 V2000
   -2.8153  -20.2021  -97.9570 C   0  0  0  0  0  0  0  0  0  0  0  0
   -3.4272  -14.9874  -96.6410 C   0  0  0  0  0  0  0  0  0  0  0  0
    1.1923  -10.8539  -95.2548 P   0  0  2  0  0  0  0  0  0  0  0  0
    3.2670  -12.6427  -95.6626 P   0  0  2  0  0  0  0  0  0  0  0  0
   -3.2332  -14.7839  -99.7830 C   0  0  0  0  0  0  0  0  0  0  0  0
   -4.2123  -16.9777  -99.1592 C   0  0  0  0  0  0  0  0  0  0  0  0
   -3.0742  -16.1905  -99.2779 C   0  0  0  0  0  0  0  0  0  0  0  0
   -1.8304  -16.7530  -98.9767 C   0  0  0  0  0  0  0  0  0  0  0  0
   -0.6712  -16.1003  -99.0658 N   0  0  0  0  0  0  0  0  0  0  0  0
   -1.7740  -18.0563  -98.5552 N   0  0  0  0  0  0  0  0  0  0  0  0
   -2.9132  -18.8003  -98.4293 C   0  0  0  0  0  0  0  0  0  0  0  0
   -4.1336  -18.2848  -98.7287 N   0  0  0  0  0  0  0  0  0  0  0  0
    1.6749   -9.7678  -96.1957 O   0  5  0  0  0  0  0  0  0  0  0  0
    4.0694  -11.5283  -96.2956 O   0  0  0  0  0  0  0  0  0  0  0  0
   -2.2973  -11.4609  -97.9255 S   0  0  0  0  0  0  0  0  0  0  0  0
   -2.5383  -12.4790  -99.1751 C   0  0  0  0  0  0  0  0  0  0  0  0
    1.6409  -10.4396  -93.8559 O   0  0  0  0  0  0  0  0  0  0  0  0
    3.4849  -13.9646  -96.3703 O   0  5  0  0  0  0  0  0  0  0  0  0
   -2.9320  -13.7545  -98.8171 N   0  0  0  0  0  0  0  0  0  0  0  0
    1.7288  -12.2616  -95.8350 O   0  0  0  0  0  0  0  0  0  0  0  0
    3.6662  -12.7457  -94.2045 O   0  0  0  0  0  0  0  0  0  0  0  0
   -3.0229  -13.8186  -97.4485 C   0  0  1  0  0  0  0  0  0  0  0  0
   -2.6927  -12.5861  -96.8633 C   0  0  2  0  0  0  0  0  0  0  0  0
   -2.6295  -12.0599  -95.4506 C   0  0  0  0  0  0  0  0  0  0  0  0
   -1.2006  -12.1137  -94.8997 C   0  0  0  0  0  0  0  0  0  0  0  0
   -0.3973  -11.1527  -95.5735 O   0  0  0  0  0  0  0  0  0  0  0  0
  1 11  1  0  0  0  0
  3 13  1  6  0  0  0
  3 17  2  0  0  0  0
  3 20  1  0  0  0  0
  3 26  1  0  0  0  0
  4 14  1  6  0  0  0
  4 18  1  0  0  0  0
  4 21  2  0  0  0  0
  4 20  1  0  0  0  0
  5 19  1  0  0  0  0
  5  7  1  0  0  0  0
  6  7  2  0  0  0  0
  6 12  1  0  0  0  0
  7  8  1  0  0  0  0
  8  9  1  0  0  0  0
  8 10  2  0  0  0  0
 10 11  1  0  0  0  0
 11 12  2  0  0  0  0
 15 23  1  0  0  0  0
 15 16  1  0  0  0  0
 16 19  1  0  0  0  0
 19 22  1  0  0  0  0
 22  2  1  6  0  0  0
 22 23  1  0  0  0  0
 23 24  1  6  0  0  0
 24 25  1  0  0  0  0
 25 26  1  0  0  0  0
M  CHG  2  13  -1  18  -1
M  END
>  <CHROM.1>
75.11555673,155.35663890,113.53902380,-56.66325898,-83.36057744,69.67888231
178.19698968,179.68602681,-0.60111924,-13.62815973,-96.96359274,-2.30465108
-0.33263258,0.24893140

>  <Name>
ligand

>  <RI>
0

>  <Rbt.Current_Directory>
/home/itssahil/PROJECTS/Mol_Feturizer/New_Systems/rnas/2CKY

>  <Rbt.Executable>
rbdock ($Id: //depot/dev/client3/rdock/2013.1/src/exe/rbdock.cxx#4 $)

>  <Rbt.Library>
libRbt.so (2013.1, Build901 2013/11/27)

>  <Rbt.Parameter_File>
/export/apps/rDock/src/rDock_2013.1_src/data/scripts/dock_solv.prm

>  <Rbt.Receptor>
prm/pocket_docking_7.prm

>  <SCORE>
-18.8446

>  <SCORE.INTER>
-13.2196

>  <SCORE.INTER.CONST>
1

>  <SCORE.INTER.POLAR>
0

>  <SCORE.INTER.ROT>
8

>  <SCORE.INTER.SOLV>
4.09202

>  <SCORE.INTER.VDW>
-19.1104

>  <SCORE.INTER.norm>
-0.508445

>  <SCORE.INTRA>
-5.62502

>  <SCORE.INTRA.DIHEDRAL>
-10.8412

>  <SCORE.INTRA.DIHEDRAL.0>
16.4846

>  <SCORE.INTRA.POLAR>
0

>  <SCORE.INTRA.POLAR.0>
0

>  <SCORE.INTRA.REPUL>
0

>  <SCORE.INTRA.REPUL.0>
0

>  <SCORE.INTRA.SOLV>
1.59577

>  <SCORE.INTRA.SOLV.lig_0>
-82.6983

>  <SCORE.INTRA.VDW>
-1.00229

>  <SCORE.INTRA.VDW.0>
-2.11466

>  <SCORE.INTRA.norm>
-0.216347

>  <SCORE.RESTR>
0

>  <SCORE.RESTR.CAVITY>
0

>  <SCORE.RESTR.norm>
0

>  <SCORE.SYSTEM>
0

>  <SCORE.SYSTEM.CONST>
0

>  <SCORE.SYSTEM.DIHEDRAL>
0

>  <SCORE.SYSTEM.SOLV>
0

>  <SCORE.SYSTEM.norm>
0

>  <SCORE.heavy>
26

>  <SCORE.norm>
-0.724792

>  <RMSD>
8.036

$$$$
ligand
 OpenBabel11021811423D
libRbt.so/2013.1/901 2013/11/27
 26 27  0  0  0  0  0  0  0  0999 V2000
    5.3607  -16.3342  -98.9657 C   0  0  0  0  0  0  0  0  0  0  0  0
   -1.7151  -17.6044  -97.4678 C   0  0  0  0  0  0  0  0  0  0  0  0
   -0.8155  -13.7721  -95.0891 P   0  0  2  0  0  0  0  0  0  0  0  0
   -0.0024  -15.4892  -93.0739 P   0  0  2  0  0  0  0  0  0  0  0  0
   -0.0798  -17.6870 -100.1641 C   0  0  0  0  0  0  0  0  0  0  0  0
    2.1534  -16.7964 -100.7804 C   0  0  0  0  0  0  0  0  0  0  0  0
    1.3459  -17.3720  -99.8080 C   0  0  0  0  0  0  0  0  0  0  0  0
    1.8738  -17.5825  -98.5308 C   0  0  0  0  0  0  0  0  0  0  0  0
    1.1915  -18.1141  -97.5160 N   0  0  0  0  0  0  0  0  0  0  0  0
    3.1761  -17.2331  -98.2831 N   0  0  0  0  0  0  0  0  0  0  0  0
    3.9524  -16.6865  -99.2659 C   0  0  0  0  0  0  0  0  0  0  0  0
    3.4621  -16.4571 -100.5115 N   0  0  0  0  0  0  0  0  0  0  0  0
    0.6244  -13.7521  -95.5628 O   0  5  0  0  0  0  0  0  0  0  0  0
    0.1370  -14.2483  -92.2211 O   0  0  0  0  0  0  0  0  0  0  0  0
   -2.5470  -14.6513  -99.9071 S   0  0  0  0  0  0  0  0  0  0  0  0
   -1.4076  -15.6244 -100.5482 C   0  0  0  0  0  0  0  0  0  0  0  0
   -1.0493  -12.4449  -94.3723 O   0  0  0  0  0  0  0  0  0  0  0  0
    1.3110  -15.8764  -93.7224 O   0  5  0  0  0  0  0  0  0  0  0  0
   -1.0420  -16.6932  -99.7519 N   0  0  0  0  0  0  0  0  0  0  0  0
   -1.0222  -15.1333  -94.2463 O   0  0  0  0  0  0  0  0  0  0  0  0
   -0.5161  -16.6127  -92.1965 O   0  0  0  0  0  0  0  0  0  0  0  0
   -1.7733  -16.6466  -98.5906 C   0  0  1  0  0  0  0  0  0  0  0  0
   -2.6439  -15.5455  -98.5873 C   0  0  2  0  0  0  0  0  0  0  0  0
   -3.6707  -15.0016  -97.6248 C   0  0  0  0  0  0  0  0  0  0  0  0
   -3.0719  -14.7954  -96.2294 C   0  0  0  0  0  0  0  0  0  0  0  0
   -1.7743  -14.2259  -96.3509 O   0  0  0  0  0  0  0  0  0  0  0  0
  1 11  1  0  0  0  0
  3 13  1  6  0  0  0
  3 17  2  0  0  0  0
  3 20  1  0  0  0  0
  3 26  1  0  0  0  0
  4 14  1  1  0  0  0
  4 18  1  0  0  0  0
  4 21  2  0  0  0  0
  4 20  1  0  0  0  0
  5 19  1  0  0  0  0
  5  7  1  0  0  0  0
  6  7  2  0  0  0  0
  6 12  1  0  0  0  0
  7  8  1  0  0  0  0
  8  9  1  0  0  0  0
  8 10  2  0  0  0  0
 10 11  1  0  0  0  0
 11 12  2  0  0  0  0
 15 23  1  0  0  0  0
 15 16  1  0  0  0  0
 16 19  1  0  0  0  0
 19 22  1  0  0  0  0
 22  2  1  6  0  0  0
 22 23  1  0  0  0  0
 23 24  1  6  0  0  0
 24 25  1  0  0  0  0
 25 26  1  0  0  0  0
M  CHG  2  13  -1  18  -1
M  END
>  <CHROM.1>
51.35485107,89.73675472,-97.43940086,48.57014839,-126.88031851,42.09432616
176.65734429,157.41825704,-0.11328452,-15.64765466,-96.96304515,-1.24146456
-0.30770995,1.34331375

>  <Name>
ligand

>  <RI>
0

>  <Rbt.Current_Directory>
/home/itssahil/PROJECTS/Mol_Feturizer/New_Systems/rnas/2CKY

>  <Rbt.Executable>
rbdock ($Id: //depot/dev/client3/rdock/2013.1/src/exe/rbdock.cxx#4 $)

>  <Rbt.Library>
libRbt.so (2013.1, Build901 2013/11/27)

>  <Rbt.Parameter_File>
/export/apps/rDock/src/rDock_2013.1_src/data/scripts/dock_solv.prm

>  <Rbt.Receptor>
prm/pocket_docking_4.prm

>  <SCORE>
-12.4131

>  <SCORE.INTER>
-7.58207

>  <SCORE.INTER.CONST>
1

>  <SCORE.INTER.POLAR>
0

>  <SCORE.INTER.ROT>
8

>  <SCORE.INTER.SOLV>
11.4138

>  <SCORE.INTER.VDW>
-17.7927

>  <SCORE.INTER.norm>
-0.291618

>  <SCORE.INTRA>
-4.83218

>  <SCORE.INTRA.DIHEDRAL>
-9.76113

>  <SCORE.INTRA.DIHEDRAL.0>
16.4846

>  <SCORE.INTRA.POLAR>
0

>  <SCORE.INTRA.POLAR.0>
0

>  <SCORE.INTRA.REPUL>
0

>  <SCORE.INTRA.REPUL.0>
0

>  <SCORE.INTRA.SOLV>
2.86979

>  <SCORE.INTRA.SOLV.lig_0>
-82.6983

>  <SCORE.INTRA.VDW>
-1.38651

>  <SCORE.INTRA.VDW.0>
-2.11466

>  <SCORE.INTRA.norm>
-0.185853

>  <SCORE.RESTR>
0.00120144

>  <SCORE.RESTR.CAVITY>
0.00120144

>  <SCORE.RESTR.norm>
4.6209e-05

>  <SCORE.SYSTEM>
0

>  <SCORE.SYSTEM.CONST>
0

>  <SCORE.SYSTEM.DIHEDRAL>
0

>  <SCORE.SYSTEM.SOLV>
0

>  <SCORE.SYSTEM.norm>
0

>  <SCORE.heavy>
26

>  <SCORE.norm>
-0.477425

>  <RMSD>
8.144

$$$$
ligand
 OpenBabel11021811423D
libRbt.so/2013.1/901 2013/11/27
 26 27  0  0  0  0  0  0  0  0999 V2000
   -2.1924  -21.6139  -96.3357 C   0  0  0  0  0  0  0  0  0  0  0  0
   -0.8620  -14.5755 -100.2934 C   0  0  0  0  0  0  0  0  0  0  0  0
   -0.8917  -12.7128  -95.1094 P   0  0  2  0  0  0  0  0  0  0  0  0
   -1.7917  -15.3259  -95.2885 P   0  0  2  0  0  0  0  0  0  0  0  0
   -2.3181  -17.3721 -100.1901 C   0  0  0  0  0  0  0  0  0  0  0  0
   -1.4642  -18.4377  -98.1175 C   0  0  0  0  0  0  0  0  0  0  0  0
   -2.3043  -18.5202  -99.2204 C   0  0  0  0  0  0  0  0  0  0  0  0
   -3.1365  -19.6357  -99.3525 C   0  0  0  0  0  0  0  0  0  0  0  0
   -3.9916  -19.8178 -100.3592 N   0  0  0  0  0  0  0  0  0  0  0  0
   -3.0839  -20.6216  -98.4014 N   0  0  0  0  0  0  0  0  0  0  0  0
   -2.2326  -20.5217  -97.3372 C   0  0  0  0  0  0  0  0  0  0  0  0
   -1.4234  -19.4430  -97.1752 N   0  0  0  0  0  0  0  0  0  0  0  0
    0.4788  -12.0723  -95.2077 O   0  5  0  0  0  0  0  0  0  0  0  0
   -3.1253  -14.6782  -94.9913 O   0  0  0  0  0  0  0  0  0  0  0  0
   -4.2736  -14.5063  -98.3648 S   0  0  0  0  0  0  0  0  0  0  0  0
   -3.9658  -16.0009  -98.9372 C   0  0  0  0  0  0  0  0  0  0  0  0
   -1.6626  -11.9166  -94.0598 O   0  0  0  0  0  0  0  0  0  0  0  0
   -1.5860  -16.5880  -94.4758 O   0  5  0  0  0  0  0  0  0  0  0  0
   -2.7829  -16.1203  -99.6420 N   0  0  0  0  0  0  0  0  0  0  0  0
   -0.6644  -14.2892  -94.8462 O   0  0  0  0  0  0  0  0  0  0  0  0
   -1.7322  -15.6305  -96.7716 O   0  0  0  0  0  0  0  0  0  0  0  0
   -2.1591  -14.8973  -99.6643 C   0  0  1  0  0  0  0  0  0  0  0  0
   -2.9121  -13.9349  -98.9735 C   0  0  2  0  0  0  0  0  0  0  0  0
   -2.7361  -12.4703  -98.6564 C   0  0  0  0  0  0  0  0  0  0  0  0
   -2.6429  -12.2350  -97.1450 C   0  0  0  0  0  0  0  0  0  0  0  0
   -1.4927  -12.8969  -96.6333 O   0  0  0  0  0  0  0  0  0  0  0  0
  1 11  1  0  0  0  0
  3 13  1  6  0  0  0
  3 17  2  0  0  0  0
  3 20  1  0  0  0  0
  3 26  1  0  0  0  0
  4 14  1  1  0  0  0
  4 18  1  0  0  0  0
  4 21  2  0  0  0  0
  4 20  1  0  0  0  0
  5 19  1  0  0  0  0
  5  7  1  0  0  0  0
  6  7  2  0  0  0  0
  6 12  1  0  0  0  0
  7  8  1  0  0  0  0
  8  9  1  0  0  0  0
  8 10  2  0  0  0  0
 10 11  1  0  0  0  0
 11 12  2  0  0  0  0
 15 23  1  0  0  0  0
 15 16  1  0  0  0  0
 16 19  1  0  0  0  0
 19 22  1  0  0  0  0
 22  2  1  1  0  0  0
 22 23  1  0  0  0  0
 23 24  1  1  0  0  0
 24 25  1  0  0  0  0
 25 26  1  0  0  0  0
M  CHG  2  13  -1  18  -1
M  END
>  <CHROM.1>
-154.42997350,-50.51647096,-63.48859114,-38.47558228,62.34493876,62.71855430
170.05972074,-115.07652028,-2.16821696,-15.69895330,-97.25584635,-2.08531378
-1.21174475,-0.06969388

>  <Name>
ligand

>  <RI>
0

>  <Rbt.Current_Directory>
/home/itssahil/PROJECTS/Mol_Feturizer/New_Systems/rnas/2CKY

>  <Rbt.Executable>
rbdock ($Id: //depot/dev/client3/rdock/2013.1/src/exe/rbdock.cxx#4 $)

>  <Rbt.Library>
libRbt.so (2013.1, Build901 2013/11/27)

>  <Rbt.Parameter_File>
/export/apps/rDock/src/rDock_2013.1_src/data/scripts/dock_solv.prm

>  <Rbt.Receptor>
prm/pocket_docking_6.prm

>  <SCORE>
-19.1176

>  <SCORE.INTER>
-13.6903

>  <SCORE.INTER.CONST>
1

>  <SCORE.INTER.POLAR>
0

>  <SCORE.INTER.ROT>
8

>  <SCORE.INTER.SOLV>
17.4365

>  <SCORE.INTER.VDW>
-23.8724

>  <SCORE.INTER.norm>
-0.52655

>  <SCORE.INTRA>
-5.44278

>  <SCORE.INTRA.DIHEDRAL>
-7.16015

>  <SCORE.INTRA.DIHEDRAL.0>
16.4846

>  <SCORE.INTRA.POLAR>
0

>  <SCORE.INTRA.POLAR.0>
0

>  <SCORE.INTRA.REPUL>
0

>  <SCORE.INTRA.REPUL.0>
0

>  <SCORE.INTRA.SOLV>
2.10459

>  <SCORE.INTRA.SOLV.lig_0>
-82.6983

>  <SCORE.INTRA.VDW>
-2.915

>  <SCORE.INTRA.VDW.0>
-2.11466

>  <SCORE.INTRA.norm>
-0.209338

>  <SCORE.RESTR>
0.0155378

>  <SCORE.RESTR.CAVITY>
0.0155378

>  <SCORE.RESTR.norm>
0.00059761

>  <SCORE.SYSTEM>
0

>  <SCORE.SYSTEM.CONST>
0

>  <SCORE.SYSTEM.DIHEDRAL>
0

>  <SCORE.SYSTEM.SOLV>
0

>  <SCORE.SYSTEM.norm>
0

>  <SCORE.heavy>
26

>  <SCORE.norm>
-0.735291

>  <RMSD>
8.157

$$$$
ligand
 OpenBabel11021811423D
libRbt.so/2013.1/901 2013/11/27
 26 27  0  0  0  0  0  0  0  0999 V2000
    2.7915  -10.1318 -100.6321 C   0  0  0  0  0  0  0  0  0  0  0  0
    3.3190  -14.4152  -93.7832 C   0  0  0  0  0  0  0  0  0  0  0  0
    0.3328  -18.6499  -97.4194 P   0  0  2  0  0  0  0  0  0  0  0  0
   -1.4196  -16.9528  -98.7308 P   0  0  2  0  0  0  0  0  0  0  0  0
    4.8819  -12.9396  -96.0921 C   0  0  0  0  0  0  0  0  0  0  0  0
    4.5758  -12.6240  -98.5349 C   0  0  0  0  0  0  0  0  0  0  0  0
    4.3320  -12.1554  -97.2503 C   0  0  0  0  0  0  0  0  0  0  0  0
    3.5443  -11.0121  -97.0875 C   0  0  0  0  0  0  0  0  0  0  0  0
    3.2329  -10.4785  -95.9060 N   0  0  0  0  0  0  0  0  0  0  0  0
    3.0538  -10.3780  -98.1996 N   0  0  0  0  0  0  0  0  0  0  0  0
    3.3270  -10.8515  -99.4520 C   0  0  0  0  0  0  0  0  0  0  0  0
    4.0770  -11.9681  -99.6399 N   0  0  0  0  0  0  0  0  0  0  0  0
    0.8254  -19.2497  -98.7216 O   0  5  0  0  0  0  0  0  0  0  0  0
   -1.0265  -17.5556 -100.0607 O   0  0  0  0  0  0  0  0  0  0  0  0
    4.2728  -16.7500  -96.7836 S   0  0  0  0  0  0  0  0  0  0  0  0
    4.7804  -15.2254  -97.0561 C   0  0  0  0  0  0  0  0  0  0  0  0
   -0.6736  -19.6428  -96.8438 O   0  0  0  0  0  0  0  0  0  0  0  0
   -1.6678  -15.4622  -98.8404 O   0  5  0  0  0  0  0  0  0  0  0  0
    4.4795  -14.3251  -96.0516 N   0  0  0  0  0  0  0  0  0  0  0  0
   -0.1820  -17.1553  -97.7466 O   0  0  0  0  0  0  0  0  0  0  0  0
   -2.6614  -17.6657  -98.2352 O   0  0  0  0  0  0  0  0  0  0  0  0
    3.8119  -14.9888  -95.0519 C   0  0  1  0  0  0  0  0  0  0  0  0
    3.6537  -16.3474  -95.3674 C   0  0  2  0  0  0  0  0  0  0  0  0
    3.0373  -17.5377  -94.6747 C   0  0  0  0  0  0  0  0  0  0  0  0
    1.6083  -17.7903  -95.1671 C   0  0  0  0  0  0  0  0  0  0  0  0
    1.6405  -18.1718  -96.5369 O   0  0  0  0  0  0  0  0  0  0  0  0
  1 11  1  0  0  0  0
  3 13  1  6  0  0  0
  3 17  2  0  0  0  0
  3 20  1  0  0  0  0
  3 26  1  0  0  0  0
  4 14  1  6  0  0  0
  4 18  1  0  0  0  0
  4 21  2  0  0  0  0
  4 20  1  0  0  0  0
  5 19  1  0  0  0  0
  5  7  1  0  0  0  0
  6  7  2  0  0  0  0
  6 12  1  0  0  0  0
  7  8  1  0  0  0  0
  8  9  1  0  0  0  0
  8 10  2  0  0  0  0
 10 11  1  0  0  0  0
 11 12  2  0  0  0  0
 15 23  1  0  0  0  0
 15 16  1  0  0  0  0
 16 19  1  0  0  0  0
 19 22  1  0  0  0  0
 22  2  1  1  0  0  0
 22 23  1  0  0  0  0
 23 24  1  1  0  0  0
 24 25  1  0  0  0  0
 25 26  1  0  0  0  0
M  CHG  2  13  -1  18  -1
M  END
>  <CHROM.1>
63.39117103,60.96371472,-55.95930200,-60.05946613,-83.49168846,65.76239183
174.86067659,-167.88896651,1.94477829,-15.45490631,-97.37629087,0.79541462
-0.63424511,-0.49415321

>  <Name>
ligand

>  <RI>
0

>  <Rbt.Current_Directory>
/home/itssahil/PROJECTS/Mol_Feturizer/New_Systems/rnas/2CKY

>  <Rbt.Executable>
rbdock ($Id: //depot/dev/client3/rdock/2013.1/src/exe/rbdock.cxx#4 $)

>  <Rbt.Library>
libRbt.so (2013.1, Build901 2013/11/27)

>  <Rbt.Parameter_File>
/export/apps/rDock/src/rDock_2013.1_src/data/scripts/dock_solv.prm

>  <Rbt.Receptor>
prm/pocket_docking_5.prm

>  <SCORE>
-15.207

>  <SCORE.INTER>
-8.42231

>  <SCORE.INTER.CONST>
1

>  <SCORE.INTER.POLAR>
0

>  <SCORE.INTER.ROT>
8

>  <SCORE.INTER.SOLV>
8.90555

>  <SCORE.INTER.VDW>
-17.5167

>  <SCORE.INTER.norm>
-0.323935

>  <SCORE.INTRA>
-6.78467

>  <SCORE.INTRA.DIHEDRAL>
-10.7679

>  <SCORE.INTRA.DIHEDRAL.0>
16.4846

>  <SCORE.INTRA.POLAR>
0

>  <SCORE.INTRA.POLAR.0>
0

>  <SCORE.INTRA.REPUL>
0

>  <SCORE.INTRA.REPUL.0>
0

>  <SCORE.INTRA.SOLV>
0.194857

>  <SCORE.INTRA.SOLV.lig_0>
-82.6983

>  <SCORE.INTRA.VDW>
-1.49817

>  <SCORE.INTRA.VDW.0>
-2.11466

>  <SCORE.INTRA.norm>
-0.260949

>  <SCORE.RESTR>
0

>  <SCORE.RESTR.CAVITY>
0

>  <SCORE.RESTR.norm>
0

>  <SCORE.SYSTEM>
0

>  <SCORE.SYSTEM.CONST>
0

>  <SCORE.SYSTEM.DIHEDRAL>
0

>  <SCORE.SYSTEM.SOLV>
0

>  <SCORE.SYSTEM.norm>
0

>  <SCORE.heavy>
26

>  <SCORE.norm>
-0.584884

>  <RMSD>
8.203

$$$$
ligand
 OpenBabel11021811423D
libRbt.so/2013.1/901 2013/11/27
 26 27  0  0  0  0  0  0  0  0999 V2000
    2.1677   -8.9940  -98.0919 C   0  0  0  0  0  0  0  0  0  0  0  0
   -2.8808  -12.9300  -98.8330 C   0  0  0  0  0  0  0  0  0  0  0  0
    0.5588  -17.3972  -98.2757 P   0  0  2  0  0  0  0  0  0  0  0  0
    0.0710  -18.8153  -95.9474 P   0  0  2  0  0  0  0  0  0  0  0  0
   -2.6030  -11.4428  -96.0649 C   0  0  0  0  0  0  0  0  0  0  0  0
   -1.3783  -10.0231  -97.6912 C   0  0  0  0  0  0  0  0  0  0  0  0
   -1.3215  -10.8428  -96.5715 C   0  0  0  0  0  0  0  0  0  0  0  0
   -0.0914  -11.0303  -95.9343 C   0  0  0  0  0  0  0  0  0  0  0  0
    0.0826  -11.7824  -94.8472 N   0  0  0  0  0  0  0  0  0  0  0  0
    1.0228  -10.4161  -96.4447 N   0  0  0  0  0  0  0  0  0  0  0  0
    0.9393   -9.6308  -97.5598 C   0  0  0  0  0  0  0  0  0  0  0  0
   -0.2445   -9.4190  -98.1910 N   0  0  0  0  0  0  0  0  0  0  0  0
    0.4538  -18.7079  -99.0300 O   0  5  0  0  0  0  0  0  0  0  0  0
    0.0582  -20.0852  -96.7682 O   0  0  0  0  0  0  0  0  0  0  0  0
   -3.0065  -15.3283  -95.7354 S   0  0  0  0  0  0  0  0  0  0  0  0
   -2.8036  -13.7829  -95.2594 C   0  0  0  0  0  0  0  0  0  0  0  0
    1.5206  -16.5199  -99.0728 O   0  0  0  0  0  0  0  0  0  0  0  0
   -1.3179  -18.2290  -95.7967 O   0  5  0  0  0  0  0  0  0  0  0  0
   -2.7384  -12.8624  -96.2883 N   0  0  0  0  0  0  0  0  0  0  0  0
    0.9483  -17.7537  -96.7502 O   0  0  0  0  0  0  0  0  0  0  0  0
    0.6662  -19.1333  -94.5907 O   0  0  0  0  0  0  0  0  0  0  0  0
   -2.8742  -13.5271  -97.4821 C   0  0  1  0  0  0  0  0  0  0  0  0
   -3.0340  -14.9064  -97.2755 C   0  0  2  0  0  0  0  0  0  0  0  0
   -3.2374  -16.1020  -98.1731 C   0  0  0  0  0  0  0  0  0  0  0  0
   -1.9386  -16.4883  -98.8888 C   0  0  0  0  0  0  0  0  0  0  0  0
   -0.9643  -16.8721  -97.9264 O   0  0  0  0  0  0  0  0  0  0  0  0
  1 11  1  0  0  0  0
  3 13  1  6  0  0  0
  3 17  2  0  0  0  0
  3 20  1  0  0  0  0
  3 26  1  0  0  0  0
  4 14  1  6  0  0  0
  4 18  1  0  0  0  0
  4 21  2  0  0  0  0
  4 20  1  0  0  0  0
  5 19  1  0  0  0  0
  5  7  1  0  0  0  0
  6  7  2  0  0  0  0
  6 12  1  0  0  0  0
  7  8  1  0  0  0  0
  8  9  1  0  0  0  0
  8 10  2  0  0  0  0
 10 11  1  0  0  0  0
 11 12  2  0  0  0  0
 15 23  1  0  0  0  0
 15 16  1  0  0  0  0
 16 19  1  0  0  0  0
 19 22  1  0  0  0  0
 22  2  1  1  0  0  0
 22 23  1  0  0  0  0
 23 24  1  1  0  0  0
 24 25  1  0  0  0  0
 25 26  1  0  0  0  0
M  CHG  2  13  -1  18  -1
M  END
>  <CHROM.1>
-52.35798239,115.54096619,108.46283479,55.53017220,-105.79393838,62.77396947
178.33891183,-64.56197647,-0.78434021,-14.88543564,-97.02196657,-1.62445452
-0.29465994,3.10947114

>  <Name>
ligand

>  <RI>
0

>  <Rbt.Current_Directory>
/home/itssahil/PROJECTS/Mol_Feturizer/New_Systems/rnas/2CKY

>  <Rbt.Executable>
rbdock ($Id: //depot/dev/client3/rdock/2013.1/src/exe/rbdock.cxx#4 $)

>  <Rbt.Library>
libRbt.so (2013.1, Build901 2013/11/27)

>  <Rbt.Parameter_File>
/export/apps/rDock/src/rDock_2013.1_src/data/scripts/dock_solv.prm

>  <Rbt.Receptor>
prm/pocket_docking_5.prm

>  <SCORE>
-17.0962

>  <SCORE.INTER>
-9.95641

>  <SCORE.INTER.CONST>
1

>  <SCORE.INTER.POLAR>
0

>  <SCORE.INTER.ROT>
8

>  <SCORE.INTER.SOLV>
9.95368

>  <SCORE.INTER.VDW>
-18.8888

>  <SCORE.INTER.norm>
-0.382939

>  <SCORE.INTRA>
-7.13977

>  <SCORE.INTRA.DIHEDRAL>
-11.5484

>  <SCORE.INTRA.DIHEDRAL.0>
16.4846

>  <SCORE.INTRA.POLAR>
0

>  <SCORE.INTRA.POLAR.0>
0

>  <SCORE.INTRA.REPUL>
0

>  <SCORE.INTRA.REPUL.0>
0

>  <SCORE.INTRA.SOLV>
1.73622

>  <SCORE.INTRA.SOLV.lig_0>
-82.6983

>  <SCORE.INTRA.VDW>
-2.23367

>  <SCORE.INTRA.VDW.0>
-2.11466

>  <SCORE.INTRA.norm>
-0.274607

>  <SCORE.RESTR>
0

>  <SCORE.RESTR.CAVITY>
0

>  <SCORE.RESTR.norm>
0

>  <SCORE.SYSTEM>
0

>  <SCORE.SYSTEM.CONST>
0

>  <SCORE.SYSTEM.DIHEDRAL>
0

>  <SCORE.SYSTEM.SOLV>
0

>  <SCORE.SYSTEM.norm>
0

>  <SCORE.heavy>
26

>  <SCORE.norm>
-0.657545

>  <RMSD>
8.213

$$$$
ligand
 OpenBabel11021811423D
libRbt.so/2013.1/901 2013/11/27
 26 27  0  0  0  0  0  0  0  0999 V2000
   -2.3190  -19.4722  -99.7575 C   0  0  0  0  0  0  0  0  0  0  0  0
   -3.0417  -14.7879  -96.3293 C   0  0  0  0  0  0  0  0  0  0  0  0
    2.3935  -12.8950  -95.7401 P   0  0  2  0  0  0  0  0  0  0  0  0
    2.6475  -11.5016  -98.1201 P   0  0  2  0  0  0  0  0  0  0  0  0
   -3.7436  -13.9393  -99.2854 C   0  0  0  0  0  0  0  0  0  0  0  0
   -4.2022  -16.3619  -99.0004 C   0  0  0  0  0  0  0  0  0  0  0  0
   -3.3145  -15.3744  -99.4079 C   0  0  0  0  0  0  0  0  0  0  0  0
   -2.0891  -15.7558  -99.9620 C   0  0  0  0  0  0  0  0  0  0  0  0
   -1.1653  -14.8996 -100.3992 N   0  0  0  0  0  0  0  0  0  0  0  0
   -1.7932  -17.0902 -100.0681 N   0  0  0  0  0  0  0  0  0  0  0  0
   -2.6789  -18.0389  -99.6403 C   0  0  0  0  0  0  0  0  0  0  0  0
   -3.8825  -17.6981  -99.1114 N   0  0  0  0  0  0  0  0  0  0  0  0
    3.0358  -12.8492  -94.3677 O   0  5  0  0  0  0  0  0  0  0  0  0
    3.3853  -12.6596  -98.7536 O   0  0  0  0  0  0  0  0  0  0  0  0
   -1.8085  -11.1885  -97.2711 S   0  0  0  0  0  0  0  0  0  0  0  0
   -2.5566  -11.8907  -98.5373 C   0  0  0  0  0  0  0  0  0  0  0  0
    2.7181  -14.2694  -96.3196 O   0  0  0  0  0  0  0  0  0  0  0  0
    3.1908  -10.1662  -98.5860 O   0  5  0  0  0  0  0  0  0  0  0  0
   -3.0196  -13.1713  -98.3008 N   0  0  0  0  0  0  0  0  0  0  0  0
    2.9020  -11.5940  -96.5492 O   0  0  0  0  0  0  0  0  0  0  0  0
    1.1777  -11.6297  -98.4653 O   0  0  0  0  0  0  0  0  0  0  0  0
   -2.7161  -13.5164  -97.0068 C   0  0  1  0  0  0  0  0  0  0  0  0
   -2.0446  -12.4726  -96.3511 C   0  0  2  0  0  0  0  0  0  0  0  0
   -1.4923  -12.2671  -94.9622 C   0  0  0  0  0  0  0  0  0  0  0  0
   -0.1574  -12.9973  -94.7801 C   0  0  0  0  0  0  0  0  0  0  0  0
    0.8307  -12.3888  -95.6025 O   0  0  0  0  0  0  0  0  0  0  0  0
  1 11  1  0  0  0  0
  3 13  1  1  0  0  0
  3 17  2  0  0  0  0
  3 20  1  0  0  0  0
  3 26  1  0  0  0  0
  4 14  1  6  0  0  0
  4 18  1  0  0  0  0
  4 21  2  0  0  0  0
  4 20  1  0  0  0  0
  5 19  1  0  0  0  0
  5  7  1  0  0  0  0
  6  7  2  0  0  0  0
  6 12  1  0  0  0  0
  7  8  1  0  0  0  0
  8  9  1  0  0  0  0
  8 10  2  0  0  0  0
 10 11  1  0  0  0  0
 11 12  2  0  0  0  0
 15 23  1  0  0  0  0
 15 16  1  0  0  0  0
 16 19  1  0  0  0  0
 19 22  1  0  0  0  0
 22  2  1  1  0  0  0
 22 23  1  0  0  0  0
 23 24  1  1  0  0  0
 24 25  1  0  0  0  0
 25 26  1  0  0  0  0
M  CHG  2  13  -1  18  -1
M  END
>  <CHROM.1>
167.55827863,135.87279152,112.03903962,-61.65419357,-102.62737686,67.19154490
-178.08623934,-59.08346551,-0.37249442,-13.55798822,-97.64969546,-2.38034463
0.03628520,0.54465607

>  <Name>
ligand

>  <RI>
0

>  <Rbt.Current_Directory>
/home/itssahil/PROJECTS/Mol_Feturizer/New_Systems/rnas/2CKY

>  <Rbt.Executable>
rbdock ($Id: //depot/dev/client3/rdock/2013.1/src/exe/rbdock.cxx#4 $)

>  <Rbt.Library>
libRbt.so (2013.1, Build901 2013/11/27)

>  <Rbt.Parameter_File>
/export/apps/rDock/src/rDock_2013.1_src/data/scripts/dock_solv.prm

>  <Rbt.Receptor>
prm/pocket_docking_7.prm

>  <SCORE>
-17.9999

>  <SCORE.INTER>
-10.2685

>  <SCORE.INTER.CONST>
1

>  <SCORE.INTER.POLAR>
0

>  <SCORE.INTER.ROT>
8

>  <SCORE.INTER.SOLV>
6.18134

>  <SCORE.INTER.VDW>
-17.8394

>  <SCORE.INTER.norm>
-0.394942

>  <SCORE.INTRA>
-7.7314

>  <SCORE.INTRA.DIHEDRAL>
-11.1161

>  <SCORE.INTRA.DIHEDRAL.0>
16.4846

>  <SCORE.INTRA.POLAR>
0

>  <SCORE.INTRA.POLAR.0>
0

>  <SCORE.INTRA.REPUL>
0

>  <SCORE.INTRA.REPUL.0>
0

>  <SCORE.INTRA.SOLV>
1.05681

>  <SCORE.INTRA.SOLV.lig_0>
-82.6983

>  <SCORE.INTRA.VDW>
-2.70176

>  <SCORE.INTRA.VDW.0>
-2.11466

>  <SCORE.INTRA.norm>
-0.297362

>  <SCORE.RESTR>
0

>  <SCORE.RESTR.CAVITY>
0

>  <SCORE.RESTR.norm>
0

>  <SCORE.SYSTEM>
0

>  <SCORE.SYSTEM.CONST>
0

>  <SCORE.SYSTEM.DIHEDRAL>
0

>  <SCORE.SYSTEM.SOLV>
0

>  <SCORE.SYSTEM.norm>
0

>  <SCORE.heavy>
26

>  <SCORE.norm>
-0.692303

>  <RMSD>
8.213

$$$$
ligand
 OpenBabel11021811423D
libRbt.so/2013.1/901 2013/11/27
 26 27  0  0  0  0  0  0  0  0999 V2000
   -3.0785  -20.1961 -100.1911 C   0  0  0  0  0  0  0  0  0  0  0  0
   -2.3477  -11.7500  -98.2191 C   0  0  0  0  0  0  0  0  0  0  0  0
    1.7967  -11.8349  -96.2190 P   0  0  2  0  0  0  0  0  0  0  0  0
    3.1224  -11.0938  -98.5350 P   0  0  2  0  0  0  0  0  0  0  0  0
   -3.3890  -14.5548  -99.2190 C   0  0  0  0  0  0  0  0  0  0  0  0
   -4.2914  -16.8633  -99.0888 C   0  0  0  0  0  0  0  0  0  0  0  0
   -3.2501  -16.0293  -99.4748 C   0  0  0  0  0  0  0  0  0  0  0  0
   -2.1477  -16.5856 -100.1302 C   0  0  0  0  0  0  0  0  0  0  0  0
   -1.0975  -15.8842 -100.5579 N   0  0  0  0  0  0  0  0  0  0  0  0
   -2.1193  -17.9378 -100.3539 N   0  0  0  0  0  0  0  0  0  0  0  0
   -3.1502  -18.7360  -99.9449 C   0  0  0  0  0  0  0  0  0  0  0  0
   -4.2402  -18.2214  -99.3191 N   0  0  0  0  0  0  0  0  0  0  0  0
    2.4143  -10.7257  -95.3906 O   0  5  0  0  0  0  0  0  0  0  0  0
    3.9007  -10.0482  -97.7687 O   0  0  0  0  0  0  0  0  0  0  0  0
   -2.8967  -14.3472  -95.3353 S   0  0  0  0  0  0  0  0  0  0  0  0
   -3.2874  -14.9972  -96.7779 C   0  0  0  0  0  0  0  0  0  0  0  0
    2.5975  -13.0971  -95.9103 O   0  0  0  0  0  0  0  0  0  0  0  0
    2.7663  -10.6199  -99.9294 O   0  5  0  0  0  0  0  0  0  0  0  0
   -3.1336  -14.1484  -97.8577 N   0  0  0  0  0  0  0  0  0  0  0  0
    1.7544  -11.3215  -97.7489 O   0  0  0  0  0  0  0  0  0  0  0  0
    3.9579  -12.3562  -98.5974 O   0  0  0  0  0  0  0  0  0  0  0  0
   -2.6681  -12.9391  -97.4035 C   0  0  1  0  0  0  0  0  0  0  0  0
   -2.4999  -12.9550  -96.0100 C   0  0  2  0  0  0  0  0  0  0  0  0
   -2.0187  -11.9599  -94.9831 C   0  0  0  0  0  0  0  0  0  0  0  0
   -0.5044  -12.0646  -94.7729 C   0  0  0  0  0  0  0  0  0  0  0  0
    0.1630  -11.8018  -96.0011 O   0  0  0  0  0  0  0  0  0  0  0  0
  1 11  1  0  0  0  0
  3 13  1  1  0  0  0
  3 17  2  0  0  0  0
  3 20  1  0  0  0  0
  3 26  1  0  0  0  0
  4 14  1  1  0  0  0
  4 18  1  0  0  0  0
  4 21  2  0  0  0  0
  4 20  1  0  0  0  0
  5 19  1  0  0  0  0
  5  7  1  0  0  0  0
  6  7  2  0  0  0  0
  6 12  1  0  0  0  0
  7  8  1  0  0  0  0
  8  9  1  0  0  0  0
  8 10  2  0  0  0  0
 10 11  1  0  0  0  0
 11 12  2  0  0  0  0
 15 23  1  0  0  0  0
 15 16  1  0  0  0  0
 16 19  1  0  0  0  0
 19 22  1  0  0  0  0
 22  2  1  6  0  0  0
 22 23  1  0  0  0  0
 23 24  1  6  0  0  0
 24 25  1  0  0  0  0
 25 26  1  0  0  0  0
M  CHG  2  13  -1  18  -1
M  END
>  <CHROM.1>
66.67025663,-25.32516802,78.52796579,-60.04872833,89.65050918,60.16359489
-179.00633608,-64.99176720,-0.54574949,-13.64871743,-97.72875369,-2.45829116
0.50591615,0.85149723

>  <Name>
ligand

>  <RI>
0

>  <Rbt.Current_Directory>
/home/itssahil/PROJECTS/Mol_Feturizer/New_Systems/rnas/2CKY

>  <Rbt.Executable>
rbdock ($Id: //depot/dev/client3/rdock/2013.1/src/exe/rbdock.cxx#4 $)

>  <Rbt.Library>
libRbt.so (2013.1, Build901 2013/11/27)

>  <Rbt.Parameter_File>
/export/apps/rDock/src/rDock_2013.1_src/data/scripts/dock_solv.prm

>  <Rbt.Receptor>
prm/pocket_docking_7.prm

>  <SCORE>
-19.8891

>  <SCORE.INTER>
-12.6539

>  <SCORE.INTER.CONST>
1

>  <SCORE.INTER.POLAR>
0

>  <SCORE.INTER.ROT>
8

>  <SCORE.INTER.SOLV>
7.55588

>  <SCORE.INTER.VDW>
-19.8879

>  <SCORE.INTER.norm>
-0.48669

>  <SCORE.INTRA>
-7.23518

>  <SCORE.INTRA.DIHEDRAL>
-11.3832

>  <SCORE.INTRA.DIHEDRAL.0>
16.4846

>  <SCORE.INTRA.POLAR>
0

>  <SCORE.INTRA.POLAR.0>
0

>  <SCORE.INTRA.REPUL>
0

>  <SCORE.INTRA.REPUL.0>
0

>  <SCORE.INTRA.SOLV>
0.303203

>  <SCORE.INTRA.SOLV.lig_0>
-82.6983

>  <SCORE.INTRA.VDW>
-1.69521

>  <SCORE.INTRA.VDW.0>
-2.11466

>  <SCORE.INTRA.norm>
-0.278276

>  <SCORE.RESTR>
0

>  <SCORE.RESTR.CAVITY>
0

>  <SCORE.RESTR.norm>
0

>  <SCORE.SYSTEM>
0

>  <SCORE.SYSTEM.CONST>
0

>  <SCORE.SYSTEM.DIHEDRAL>
0

>  <SCORE.SYSTEM.SOLV>
0

>  <SCORE.SYSTEM.norm>
0

>  <SCORE.heavy>
26

>  <SCORE.norm>
-0.764966

>  <RMSD>
8.244

$$$$
ligand
 OpenBabel11021811423D
libRbt.so/2013.1/901 2013/11/27
 26 27  0  0  0  0  0  0  0  0999 V2000
    1.0518  -23.0339 -102.0167 C   0  0  0  0  0  0  0  0  0  0  0  0
   -1.0505  -16.5700  -97.0579 C   0  0  0  0  0  0  0  0  0  0  0  0
   -2.4763  -12.1319  -97.0101 P   0  0  2  0  0  0  0  0  0  0  0  0
   -0.9260  -13.5336  -95.1928 P   0  0  2  0  0  0  0  0  0  0  0  0
   -0.7047  -19.6275  -97.7534 C   0  0  0  0  0  0  0  0  0  0  0  0
   -0.6094  -21.8119  -98.9280 C   0  0  0  0  0  0  0  0  0  0  0  0
   -0.1984  -20.4861  -98.8781 C   0  0  0  0  0  0  0  0  0  0  0  0
    0.6197  -19.9947  -99.8996 C   0  0  0  0  0  0  0  0  0  0  0  0
    1.0650  -18.7396  -99.9648 N   0  0  0  0  0  0  0  0  0  0  0  0
    1.0066  -20.8400 -100.9072 N   0  0  0  0  0  0  0  0  0  0  0  0
    0.6021  -22.1451 -100.9188 C   0  0  0  0  0  0  0  0  0  0  0  0
   -0.2044  -22.6462  -99.9477 N   0  0  0  0  0  0  0  0  0  0  0  0
   -2.2448  -11.3957  -98.3149 O   0  5  0  0  0  0  0  0  0  0  0  0
   -2.0857  -14.4811  -94.9831 O   0  0  0  0  0  0  0  0  0  0  0  0
   -4.0858  -18.0949  -99.0137 S   0  0  0  0  0  0  0  0  0  0  0  0
   -2.9315  -19.2201  -98.7734 C   0  0  0  0  0  0  0  0  0  0  0  0
   -3.0022  -11.0954  -96.0206 O   0  0  0  0  0  0  0  0  0  0  0  0
   -0.9454  -12.3921  -94.1967 O   0  5  0  0  0  0  0  0  0  0  0  0
   -1.8138  -18.7698  -98.0965 N   0  0  0  0  0  0  0  0  0  0  0  0
   -1.1035  -12.8983  -96.6440 O   0  0  0  0  0  0  0  0  0  0  0  0
    0.3607  -14.3247  -95.0730 O   0  0  0  0  0  0  0  0  0  0  0  0
   -1.9894  -17.4424  -97.7920 C   0  0  1  0  0  0  0  0  0  0  0  0
   -3.2293  -16.9782  -98.2585 C   0  0  2  0  0  0  0  0  0  0  0  0
   -3.9609  -15.6595  -98.2088 C   0  0  0  0  0  0  0  0  0  0  0  0
   -2.9881  -14.4791  -98.3015 C   0  0  0  0  0  0  0  0  0  0  0  0
   -3.3363  -13.5017  -97.3286 O   0  0  0  0  0  0  0  0  0  0  0  0
  1 11  1  0  0  0  0
  3 13  1  6  0  0  0
  3 17  2  0  0  0  0
  3 20  1  0  0  0  0
  3 26  1  0  0  0  0
  4 14  1  1  0  0  0
  4 18  1  0  0  0  0
  4 21  2  0  0  0  0
  4 20  1  0  0  0  0
  5 19  1  0  0  0  0
  5  7  1  0  0  0  0
  6  7  2  0  0  0  0
  6 12  1  0  0  0  0
  7  8  1  0  0  0  0
  8  9  1  0  0  0  0
  8 10  2  0  0  0  0
 10 11  1  0  0  0  0
 11 12  2  0  0  0  0
 15 23  1  0  0  0  0
 15 16  1  0  0  0  0
 16 19  1  0  0  0  0
 19 22  1  0  0  0  0
 22  2  1  1  0  0  0
 22 23  1  0  0  0  0
 23 24  1  1  0  0  0
 24 25  1  0  0  0  0
 25 26  1  0  0  0  0
M  CHG  2  13  -1  18  -1
M  END
>  <CHROM.1>
168.23967156,48.02788229,-99.54446069,56.05297261,-145.83319245,-134.96969946
174.88111000,52.26227152,-1.51483124,-16.50390567,-97.84728819,-1.36181095
-0.37893995,0.50641958

>  <Name>
ligand

>  <RI>
0

>  <Rbt.Current_Directory>
/home/itssahil/PROJECTS/Mol_Feturizer/New_Systems/rnas/2CKY

>  <Rbt.Executable>
rbdock ($Id: //depot/dev/client3/rdock/2013.1/src/exe/rbdock.cxx#4 $)

>  <Rbt.Library>
libRbt.so (2013.1, Build901 2013/11/27)

>  <Rbt.Parameter_File>
/export/apps/rDock/src/rDock_2013.1_src/data/scripts/dock_solv.prm

>  <Rbt.Receptor>
prm/pocket_docking_8.prm

>  <SCORE>
-18.1971

>  <SCORE.INTER>
-14.2056

>  <SCORE.INTER.CONST>
1

>  <SCORE.INTER.POLAR>
0

>  <SCORE.INTER.ROT>
8

>  <SCORE.INTER.SOLV>
15.842

>  <SCORE.INTER.VDW>
-23.6844

>  <SCORE.INTER.norm>
-0.54637

>  <SCORE.INTRA>
-3.99151

>  <SCORE.INTRA.DIHEDRAL>
-6.5916

>  <SCORE.INTRA.DIHEDRAL.0>
16.4846

>  <SCORE.INTRA.POLAR>
0

>  <SCORE.INTRA.POLAR.0>
0

>  <SCORE.INTRA.REPUL>
0

>  <SCORE.INTRA.REPUL.0>
0

>  <SCORE.INTRA.SOLV>
1.53361

>  <SCORE.INTRA.SOLV.lig_0>
-82.6983

>  <SCORE.INTRA.VDW>
-1.46251

>  <SCORE.INTRA.VDW.0>
-2.11466

>  <SCORE.INTRA.norm>
-0.15352

>  <SCORE.RESTR>
0

>  <SCORE.RESTR.CAVITY>
0

>  <SCORE.RESTR.norm>
0

>  <SCORE.SYSTEM>
0

>  <SCORE.SYSTEM.CONST>
0

>  <SCORE.SYSTEM.DIHEDRAL>
0

>  <SCORE.SYSTEM.SOLV>
0

>  <SCORE.SYSTEM.norm>
0

>  <SCORE.heavy>
26

>  <SCORE.norm>
-0.699889

>  <RMSD>
8.267

$$$$
ligand
 OpenBabel11021811423D
libRbt.so/2013.1/901 2013/11/27
 26 27  0  0  0  0  0  0  0  0999 V2000
   -4.0177  -17.6488  -99.0079 C   0  0  0  0  0  0  0  0  0  0  0  0
   -0.3954  -10.2760  -96.5251 C   0  0  0  0  0  0  0  0  0  0  0  0
    4.5302  -13.4246  -97.2365 P   0  0  2  0  0  0  0  0  0  0  0  0
    4.7081  -16.0729  -98.0272 P   0  0  2  0  0  0  0  0  0  0  0  0
   -2.4064  -12.2515  -97.9409 C   0  0  0  0  0  0  0  0  0  0  0  0
   -3.6267  -13.9641  -99.2594 C   0  0  0  0  0  0  0  0  0  0  0  0
   -2.8209  -13.6787  -98.1648 C   0  0  0  0  0  0  0  0  0  0  0  0
   -2.3871  -14.7315  -97.3538 C   0  0  0  0  0  0  0  0  0  0  0  0
   -1.6023  -14.5811  -96.2864 N   0  0  0  0  0  0  0  0  0  0  0  0
   -2.7856  -16.0089  -97.6517 N   0  0  0  0  0  0  0  0  0  0  0  0
   -3.5951  -16.2565  -98.7245 C   0  0  0  0  0  0  0  0  0  0  0  0
   -4.0200  -15.2555  -99.5381 N   0  0  0  0  0  0  0  0  0  0  0  0
    5.9804  -13.0699  -97.4996 O   0  5  0  0  0  0  0  0  0  0  0  0
    6.2157  -15.9681  -98.0797 O   0  0  0  0  0  0  0  0  0  0  0  0
    1.0554  -11.9544  -99.7563 S   0  0  0  0  0  0  0  0  0  0  0  0
   -0.4614  -12.4762  -99.4677 C   0  0  0  0  0  0  0  0  0  0  0  0
    4.4238  -13.7121  -95.7412 O   0  0  0  0  0  0  0  0  0  0  0  0
    4.1666  -16.9520  -99.1362 O   0  5  0  0  0  0  0  0  0  0  0  0
   -1.0536  -11.9430  -98.3385 N   0  0  0  0  0  0  0  0  0  0  0  0
    4.1332  -14.6050  -98.2636 O   0  0  0  0  0  0  0  0  0  0  0  0
    4.3177  -16.6237  -96.6707 O   0  0  0  0  0  0  0  0  0  0  0  0
   -0.1684  -11.0773  -97.7449 C   0  0  1  0  0  0  0  0  0  0  0  0
    1.0342  -11.0133  -98.4661 C   0  0  2  0  0  0  0  0  0  0  0  0
    2.3273  -10.2503  -98.3167 C   0  0  0  0  0  0  0  0  0  0  0  0
    3.3090  -10.9915  -97.4029 C   0  0  0  0  0  0  0  0  0  0  0  0
    3.5763  -12.2802  -97.9421 O   0  0  0  0  0  0  0  0  0  0  0  0
  1 11  1  0  0  0  0
  3 13  1  6  0  0  0
  3 17  2  0  0  0  0
  3 20  1  0  0  0  0
  3 26  1  0  0  0  0
  4 14  1  6  0  0  0
  4 18  1  0  0  0  0
  4 21  2  0  0  0  0
  4 20  1  0  0  0  0
  5 19  1  0  0  0  0
  5  7  1  0  0  0  0
  6  7  2  0  0  0  0
  6 12  1  0  0  0  0
  7  8  1  0  0  0  0
  8  9  1  0  0  0  0
  8 10  2  0  0  0  0
 10 11  1  0  0  0  0
 11 12  2  0  0  0  0
 15 23  1  0  0  0  0
 15 16  1  0  0  0  0
 16 19  1  0  0  0  0
 19 22  1  0  0  0  0
 22  2  1  6  0  0  0
 22 23  1  0  0  0  0
 23 24  1  6  0  0  0
 24 25  1  0  0  0  0
 25 26  1  0  0  0  0
M  CHG  2  13  -1  18  -1
M  END
>  <CHROM.1>
72.60328174,38.13396550,-102.41116739,-60.05458093,-93.63422980,58.77082810
-177.23586671,-78.95154495,1.30777374,-13.78743892,-98.03505549,-3.14111715
-0.10503193,0.03172223

>  <Name>
ligand

>  <RI>
0

>  <Rbt.Current_Directory>
/home/itssahil/PROJECTS/Mol_Feturizer/New_Systems/rnas/2CKY

>  <Rbt.Executable>
rbdock ($Id: //depot/dev/client3/rdock/2013.1/src/exe/rbdock.cxx#4 $)

>  <Rbt.Library>
libRbt.so (2013.1, Build901 2013/11/27)

>  <Rbt.Parameter_File>
/export/apps/rDock/src/rDock_2013.1_src/data/scripts/dock_solv.prm

>  <Rbt.Receptor>
prm/pocket_docking_5.prm

>  <SCORE>
-17.634

>  <SCORE.INTER>
-10.6052

>  <SCORE.INTER.CONST>
1

>  <SCORE.INTER.POLAR>
0

>  <SCORE.INTER.ROT>
8

>  <SCORE.INTER.SOLV>
16.1351

>  <SCORE.INTER.VDW>
-21.3818

>  <SCORE.INTER.norm>
-0.407891

>  <SCORE.INTRA>
-7.02884

>  <SCORE.INTRA.DIHEDRAL>
-11.2387

>  <SCORE.INTRA.DIHEDRAL.0>
16.4846

>  <SCORE.INTRA.POLAR>
0

>  <SCORE.INTRA.POLAR.0>
0

>  <SCORE.INTRA.REPUL>
0

>  <SCORE.INTRA.REPUL.0>
0

>  <SCORE.INTRA.SOLV>
0.851042

>  <SCORE.INTRA.SOLV.lig_0>
-82.6983

>  <SCORE.INTRA.VDW>
-1.83501

>  <SCORE.INTRA.VDW.0>
-2.11466

>  <SCORE.INTRA.norm>
-0.27034

>  <SCORE.RESTR>
0

>  <SCORE.RESTR.CAVITY>
0

>  <SCORE.RESTR.norm>
0

>  <SCORE.SYSTEM>
0

>  <SCORE.SYSTEM.CONST>
0

>  <SCORE.SYSTEM.DIHEDRAL>
0

>  <SCORE.SYSTEM.SOLV>
0

>  <SCORE.SYSTEM.norm>
0

>  <SCORE.heavy>
26

>  <SCORE.norm>
-0.678231

>  <RMSD>
8.271

$$$$
ligand
 OpenBabel11021811423D
libRbt.so/2013.1/901 2013/11/27
 26 27  0  0  0  0  0  0  0  0999 V2000
   -2.9086  -12.0218  -97.4279 C   0  0  0  0  0  0  0  0  0  0  0  0
    0.2292  -15.7243 -101.5323 C   0  0  0  0  0  0  0  0  0  0  0  0
    4.4807  -15.7706  -98.1628 P   0  0  2  0  0  0  0  0  0  0  0  0
    3.8034  -16.6498  -95.6253 P   0  0  2  0  0  0  0  0  0  0  0  0
   -2.1918  -17.0791 -100.0308 C   0  0  0  0  0  0  0  0  0  0  0  0
   -2.9292  -14.7094  -99.9909 C   0  0  0  0  0  0  0  0  0  0  0  0
   -2.3363  -15.7666  -99.3129 C   0  0  0  0  0  0  0  0  0  0  0  0
   -1.9510  -15.5829  -97.9817 C   0  0  0  0  0  0  0  0  0  0  0  0
   -1.3858  -16.5265  -97.2280 N   0  0  0  0  0  0  0  0  0  0  0  0
   -2.1518  -14.3611  -97.3933 N   0  0  0  0  0  0  0  0  0  0  0  0
   -2.7200  -13.3335  -98.0922 C   0  0  0  0  0  0  0  0  0  0  0  0
   -3.1173  -13.4873  -99.3818 N   0  0  0  0  0  0  0  0  0  0  0  0
    5.9553  -15.9534  -98.4630 O   0  5  0  0  0  0  0  0  0  0  0  0
    3.3640  -17.9426  -94.9757 O   0  0  0  0  0  0  0  0  0  0  0  0
    1.1295  -19.1551  -99.8642 S   0  0  0  0  0  0  0  0  0  0  0  0
   -0.4304  -18.7720  -99.5880 C   0  0  0  0  0  0  0  0  0  0  0  0
    4.3184  -14.3353  -97.6696 O   0  0  0  0  0  0  0  0  0  0  0  0
    2.7270  -15.5864  -95.5461 O   0  5  0  0  0  0  0  0  0  0  0  0
   -0.8380  -17.5691 -100.1329 N   0  0  0  0  0  0  0  0  0  0  0  0
    4.0438  -16.9656  -97.1692 O   0  0  0  0  0  0  0  0  0  0  0  0
    5.0695  -16.1799  -94.9382 O   0  0  0  0  0  0  0  0  0  0  0  0
    0.2250  -17.0025 -100.7921 C   0  0  1  0  0  0  0  0  0  0  0  0
    1.3654  -17.8160 -100.7021 C   0  0  2  0  0  0  0  0  0  0  0  0
    2.7790  -17.7309 -101.2225 C   0  0  0  0  0  0  0  0  0  0  0  0
    3.7864  -17.5852 -100.0770 C   0  0  0  0  0  0  0  0  0  0  0  0
    3.6131  -16.3190  -99.4528 O   0  0  0  0  0  0  0  0  0  0  0  0
  1 11  1  0  0  0  0
  3 13  1  6  0  0  0
  3 17  2  0  0  0  0
  3 20  1  0  0  0  0
  3 26  1  0  0  0  0
  4 14  1  1  0  0  0
  4 18  1  0  0  0  0
  4 21  2  0  0  0  0
  4 20  1  0  0  0  0
  5 19  1  0  0  0  0
  5  7  1  0  0  0  0
  6  7  2  0  0  0  0
  6 12  1  0  0  0  0
  7  8  1  0  0  0  0
  8  9  1  0  0  0  0
  8 10  2  0  0  0  0
 10 11  1  0  0  0  0
 11 12  2  0  0  0  0
 15 23  1  0  0  0  0
 15 16  1  0  0  0  0
 16 19  1  0  0  0  0
 19 22  1  0  0  0  0
 22  2  1  6  0  0  0
 22 23  1  0  0  0  0
 23 24  1  6  0  0  0
 24 25  1  0  0  0  0
 25 26  1  0  0  0  0
M  CHG  2  13  -1  18  -1
M  END
>  <CHROM.1>
105.13423771,119.18786557,122.16063315,178.07237049,-66.28303654,-67.50106720
179.07329236,50.33640385,1.36027951,-16.27587884,-98.40540880,3.02999503
0.34328245,-2.22828264

>  <Name>
ligand

>  <RI>
0

>  <Rbt.Current_Directory>
/home/itssahil/PROJECTS/Mol_Feturizer/New_Systems/rnas/2CKY

>  <Rbt.Executable>
rbdock ($Id: //depot/dev/client3/rdock/2013.1/src/exe/rbdock.cxx#4 $)

>  <Rbt.Library>
libRbt.so (2013.1, Build901 2013/11/27)

>  <Rbt.Parameter_File>
/export/apps/rDock/src/rDock_2013.1_src/data/scripts/dock_solv.prm

>  <Rbt.Receptor>
prm/pocket_docking_5.prm

>  <SCORE>
-17.5505

>  <SCORE.INTER>
-12.8914

>  <SCORE.INTER.CONST>
1

>  <SCORE.INTER.POLAR>
0

>  <SCORE.INTER.ROT>
8

>  <SCORE.INTER.SOLV>
15.626

>  <SCORE.INTER.VDW>
-22.7363

>  <SCORE.INTER.norm>
-0.495824

>  <SCORE.INTRA>
-4.65904

>  <SCORE.INTRA.DIHEDRAL>
-9.1231

>  <SCORE.INTRA.DIHEDRAL.0>
16.4846

>  <SCORE.INTRA.POLAR>
0

>  <SCORE.INTRA.POLAR.0>
0

>  <SCORE.INTRA.REPUL>
0

>  <SCORE.INTRA.REPUL.0>
0

>  <SCORE.INTRA.SOLV>
2.77536

>  <SCORE.INTRA.SOLV.lig_0>
-82.6983

>  <SCORE.INTRA.VDW>
-1.48516

>  <SCORE.INTRA.VDW.0>
-2.11466

>  <SCORE.INTRA.norm>
-0.179194

>  <SCORE.RESTR>
0

>  <SCORE.RESTR.CAVITY>
0

>  <SCORE.RESTR.norm>
0

>  <SCORE.SYSTEM>
0

>  <SCORE.SYSTEM.CONST>
0

>  <SCORE.SYSTEM.DIHEDRAL>
0

>  <SCORE.SYSTEM.SOLV>
0

>  <SCORE.SYSTEM.norm>
0

>  <SCORE.heavy>
26

>  <SCORE.norm>
-0.675018

>  <RMSD>
8.298

$$$$
ligand
 OpenBabel11021811423D
libRbt.so/2013.1/901 2013/11/27
 26 27  0  0  0  0  0  0  0  0999 V2000
    0.3974  -11.2490  -92.6698 C   0  0  0  0  0  0  0  0  0  0  0  0
   -0.4450  -14.1524  -98.5791 C   0  0  0  0  0  0  0  0  0  0  0  0
   -3.6352  -19.5843  -98.9540 P   0  0  2  0  0  0  0  0  0  0  0  0
   -2.4839  -21.6934  -97.5767 P   0  0  2  0  0  0  0  0  0  0  0  0
   -2.0635  -11.5478  -97.8390 C   0  0  0  0  0  0  0  0  0  0  0  0
   -2.1049  -11.7595  -95.3663 C   0  0  0  0  0  0  0  0  0  0  0  0
   -1.3808  -11.4311  -96.5051 C   0  0  0  0  0  0  0  0  0  0  0  0
   -0.0397  -11.0609  -96.3684 C   0  0  0  0  0  0  0  0  0  0  0  0
    0.7563  -10.7377  -97.3880 N   0  0  0  0  0  0  0  0  0  0  0  0
    0.5133  -11.0143  -95.1148 N   0  0  0  0  0  0  0  0  0  0  0  0
   -0.2300  -11.3241  -94.0108 C   0  0  0  0  0  0  0  0  0  0  0  0
   -1.5306  -11.7012  -94.1146 N   0  0  0  0  0  0  0  0  0  0  0  0
   -4.8608  -18.7024  -98.8187 O   0  5  0  0  0  0  0  0  0  0  0  0
   -1.3098  -20.9251  -97.0130 O   0  0  0  0  0  0  0  0  0  0  0  0
   -4.3317  -14.6593  -98.5753 S   0  0  0  0  0  0  0  0  0  0  0  0
   -3.9502  -13.1275  -98.1700 C   0  0  0  0  0  0  0  0  0  0  0  0
   -3.6484  -20.1202 -100.3832 O   0  0  0  0  0  0  0  0  0  0  0  0
   -2.1803  -22.2560  -98.9504 O   0  5  0  0  0  0  0  0  0  0  0  0
   -2.5954  -12.8563  -98.1360 N   0  0  0  0  0  0  0  0  0  0  0  0
   -3.6801  -20.6533  -97.7452 O   0  0  0  0  0  0  0  0  0  0  0  0
   -2.8314  -22.8062  -96.6090 O   0  0  0  0  0  0  0  0  0  0  0  0
   -1.9101  -13.9974  -98.4732 C   0  0  1  0  0  0  0  0  0  0  0  0
   -2.7932  -15.0552  -98.7407 C   0  0  2  0  0  0  0  0  0  0  0  0
   -2.6348  -16.4954  -99.1616 C   0  0  0  0  0  0  0  0  0  0  0  0
   -2.3431  -17.3984  -97.9583 C   0  0  0  0  0  0  0  0  0  0  0  0
   -2.3305  -18.7571  -98.3787 O   0  0  0  0  0  0  0  0  0  0  0  0
  1 11  1  0  0  0  0
  3 13  1  1  0  0  0
  3 17  2  0  0  0  0
  3 20  1  0  0  0  0
  3 26  1  0  0  0  0
  4 14  1  1  0  0  0
  4 18  1  0  0  0  0
  4 21  2  0  0  0  0
  4 20  1  0  0  0  0
  5 19  1  0  0  0  0
  5  7  1  0  0  0  0
  6  7  2  0  0  0  0
  6 12  1  0  0  0  0
  7  8  1  0  0  0  0
  8  9  1  0  0  0  0
  8 10  2  0  0  0  0
 10 11  1  0  0  0  0
 11 12  2  0  0  0  0
 15 23  1  0  0  0  0
 15 16  1  0  0  0  0
 16 19  1  0  0  0  0
 19 22  1  0  0  0  0
 22  2  1  6  0  0  0
 22 23  1  0  0  0  0
 23 24  1  6  0  0  0
 24 25  1  0  0  0  0
 25 26  1  0  0  0  0
M  CHG  2  13  -1  18  -1
M  END
>  <CHROM.1>
-177.51102330,109.44904233,-56.92423918,74.61092485,-97.61551342,174.38216709
-65.45747976,-5.89274625,-2.27225845,-16.20518655,-97.53447072,-1.20881462
0.92793346,3.09334904

>  <Name>
ligand

>  <RI>
0

>  <Rbt.Current_Directory>
/home/itssahil/PROJECTS/Mol_Feturizer/New_Systems/rnas/2CKY

>  <Rbt.Executable>
rbdock ($Id: //depot/dev/client3/rdock/2013.1/src/exe/rbdock.cxx#4 $)

>  <Rbt.Library>
libRbt.so (2013.1, Build901 2013/11/27)

>  <Rbt.Parameter_File>
/export/apps/rDock/src/rDock_2013.1_src/data/scripts/dock_solv.prm

>  <Rbt.Receptor>
prm/pocket_docking_8.prm

>  <SCORE>
-22.472

>  <SCORE.INTER>
-17.2906

>  <SCORE.INTER.CONST>
1

>  <SCORE.INTER.POLAR>
0

>  <SCORE.INTER.ROT>
8

>  <SCORE.INTER.SOLV>
17.0816

>  <SCORE.INTER.VDW>
-26.1542

>  <SCORE.INTER.norm>
-0.665022

>  <SCORE.INTRA>
-5.18147

>  <SCORE.INTRA.DIHEDRAL>
-8.68213

>  <SCORE.INTRA.DIHEDRAL.0>
16.4846

>  <SCORE.INTRA.POLAR>
0

>  <SCORE.INTRA.POLAR.0>
0

>  <SCORE.INTRA.REPUL>
0

>  <SCORE.INTRA.REPUL.0>
0

>  <SCORE.INTRA.SOLV>
1.55821

>  <SCORE.INTRA.SOLV.lig_0>
-82.6983

>  <SCORE.INTRA.VDW>
-1.61952

>  <SCORE.INTRA.VDW.0>
-2.11466

>  <SCORE.INTRA.norm>
-0.199287

>  <SCORE.RESTR>
0

>  <SCORE.RESTR.CAVITY>
0

>  <SCORE.RESTR.norm>
0

>  <SCORE.SYSTEM>
0

>  <SCORE.SYSTEM.CONST>
0

>  <SCORE.SYSTEM.DIHEDRAL>
0

>  <SCORE.SYSTEM.SOLV>
0

>  <SCORE.SYSTEM.norm>
0

>  <SCORE.heavy>
26

>  <SCORE.norm>
-0.864309

>  <RMSD>
8.305

$$$$
ligand
 OpenBabel11021811423D
libRbt.so/2013.1/901 2013/11/27
 26 27  0  0  0  0  0  0  0  0999 V2000
    1.9703  -19.7894 -100.8854 C   0  0  0  0  0  0  0  0  0  0  0  0
   -2.6653  -15.2207  -96.1626 C   0  0  0  0  0  0  0  0  0  0  0  0
   -1.4698  -11.7434  -95.3899 P   0  0  2  0  0  0  0  0  0  0  0  0
    0.3945   -9.7607  -95.9038 P   0  0  2  0  0  0  0  0  0  0  0  0
   -2.6007  -17.6679  -98.1522 C   0  0  0  0  0  0  0  0  0  0  0  0
   -0.4427  -17.4184  -99.3528 C   0  0  0  0  0  0  0  0  0  0  0  0
   -1.4337  -18.2705  -98.8827 C   0  0  0  0  0  0  0  0  0  0  0  0
   -1.2781  -19.6485  -99.0595 C   0  0  0  0  0  0  0  0  0  0  0  0
   -2.1545  -20.5616  -98.6401 N   0  0  0  0  0  0  0  0  0  0  0  0
   -0.1637  -20.1146  -99.7077 N   0  0  0  0  0  0  0  0  0  0  0  0
    0.7852  -19.2503 -100.1766 C   0  0  0  0  0  0  0  0  0  0  0  0
    0.6677  -17.9079 -100.0064 N   0  0  0  0  0  0  0  0  0  0  0  0
   -2.9406  -11.8214  -95.0314 O   0  5  0  0  0  0  0  0  0  0  0  0
    0.7984  -10.4355  -97.1954 O   0  0  0  0  0  0  0  0  0  0  0  0
   -3.4931  -14.2595  -99.8712 S   0  0  0  0  0  0  0  0  0  0  0  0
   -3.1800  -15.8540  -99.7456 C   0  0  0  0  0  0  0  0  0  0  0  0
   -0.7211  -12.4986  -94.2949 O   0  0  0  0  0  0  0  0  0  0  0  0
    1.2304  -10.2392  -94.7341 O   0  5  0  0  0  0  0  0  0  0  0  0
   -2.8676  -16.2855  -98.4704 N   0  0  0  0  0  0  0  0  0  0  0  0
   -1.1143  -10.1844  -95.6119 O   0  0  0  0  0  0  0  0  0  0  0  0
    0.5385   -8.2634  -96.0855 O   0  0  0  0  0  0  0  0  0  0  0  0
   -2.9138  -15.2095  -97.6185 C   0  0  1  0  0  0  0  0  0  0  0  0
   -3.2593  -14.0361  -98.3072 C   0  0  2  0  0  0  0  0  0  0  0  0
   -3.4743  -12.5949  -97.9160 C   0  0  0  0  0  0  0  0  0  0  0  0
   -2.1755  -11.7888  -98.0241 C   0  0  0  0  0  0  0  0  0  0  0  0
   -1.2949  -12.1674  -96.9733 O   0  0  0  0  0  0  0  0  0  0  0  0
  1 11  1  0  0  0  0
  3 13  1  1  0  0  0
  3 17  2  0  0  0  0
  3 20  1  0  0  0  0
  3 26  1  0  0  0  0
  4 14  1  6  0  0  0
  4 18  1  0  0  0  0
  4 21  2  0  0  0  0
  4 20  1  0  0  0  0
  5 19  1  0  0  0  0
  5  7  1  0  0  0  0
  6  7  2  0  0  0  0
  6 12  1  0  0  0  0
  7  8  1  0  0  0  0
  8  9  1  0  0  0  0
  8 10  2  0  0  0  0
 10 11  1  0  0  0  0
 11 12  2  0  0  0  0
 15 23  1  0  0  0  0
 15 16  1  0  0  0  0
 16 19  1  0  0  0  0
 19 22  1  0  0  0  0
 22  2  1  1  0  0  0
 22 23  1  0  0  0  0
 23 24  1  1  0  0  0
 24 25  1  0  0  0  0
 25 26  1  0  0  0  0
M  CHG  2  13  -1  18  -1
M  END
>  <CHROM.1>
175.75585729,60.34423902,24.27545806,61.56361615,-89.69085687,-71.97469488
-73.91465698,39.95519064,-1.27100025,-14.19075852,-97.58749508,-1.61635116
-0.06107585,0.41980050

>  <Name>
ligand

>  <RI>
0

>  <Rbt.Current_Directory>
/home/itssahil/PROJECTS/Mol_Feturizer/New_Systems/rnas/2CKY

>  <Rbt.Executable>
rbdock ($Id: //depot/dev/client3/rdock/2013.1/src/exe/rbdock.cxx#4 $)

>  <Rbt.Library>
libRbt.so (2013.1, Build901 2013/11/27)

>  <Rbt.Parameter_File>
/export/apps/rDock/src/rDock_2013.1_src/data/scripts/dock_solv.prm

>  <Rbt.Receptor>
prm/pocket_docking_8.prm

>  <SCORE>
-18.1307

>  <SCORE.INTER>
-12.0522

>  <SCORE.INTER.CONST>
1

>  <SCORE.INTER.POLAR>
0

>  <SCORE.INTER.ROT>
8

>  <SCORE.INTER.SOLV>
12.3767

>  <SCORE.INTER.VDW>
-21.0937

>  <SCORE.INTER.norm>
-0.463547

>  <SCORE.INTRA>
-6.07847

>  <SCORE.INTRA.DIHEDRAL>
-9.74808

>  <SCORE.INTRA.DIHEDRAL.0>
16.4846

>  <SCORE.INTRA.POLAR>
0

>  <SCORE.INTRA.POLAR.0>
0

>  <SCORE.INTRA.REPUL>
0

>  <SCORE.INTRA.REPUL.0>
0

>  <SCORE.INTRA.SOLV>
1.4956

>  <SCORE.INTRA.SOLV.lig_0>
-82.6983

>  <SCORE.INTRA.VDW>
-1.95224

>  <SCORE.INTRA.VDW.0>
-2.11466

>  <SCORE.INTRA.norm>
-0.233787

>  <SCORE.RESTR>
0

>  <SCORE.RESTR.CAVITY>
0

>  <SCORE.RESTR.norm>
0

>  <SCORE.SYSTEM>
0

>  <SCORE.SYSTEM.CONST>
0

>  <SCORE.SYSTEM.DIHEDRAL>
0

>  <SCORE.SYSTEM.SOLV>
0

>  <SCORE.SYSTEM.norm>
0

>  <SCORE.heavy>
26

>  <SCORE.norm>
-0.697334

>  <RMSD>
8.322

$$$$
ligand
 OpenBabel11021811423D
libRbt.so/2013.1/901 2013/11/27
 26 27  0  0  0  0  0  0  0  0999 V2000
   -3.6711  -17.5153  -99.2084 C   0  0  0  0  0  0  0  0  0  0  0  0
   -0.2868   -9.8962  -97.7973 C   0  0  0  0  0  0  0  0  0  0  0  0
    3.1891  -12.6970  -95.0712 P   0  0  2  0  0  0  0  0  0  0  0  0
    4.3682  -12.9857  -97.5606 P   0  0  2  0  0  0  0  0  0  0  0  0
   -2.6209  -11.9454  -98.3487 C   0  0  0  0  0  0  0  0  0  0  0  0
   -4.1388  -13.9054  -98.4713 C   0  0  0  0  0  0  0  0  0  0  0  0
   -2.8416  -13.4170  -98.5594 C   0  0  0  0  0  0  0  0  0  0  0  0
   -1.8097  -14.2995  -98.8922 C   0  0  0  0  0  0  0  0  0  0  0  0
   -0.5309  -13.9439  -99.0183 N   0  0  0  0  0  0  0  0  0  0  0  0
   -2.1063  -15.6214  -99.1018 N   0  0  0  0  0  0  0  0  0  0  0  0
   -3.3898  -16.0765  -98.9887 C   0  0  0  0  0  0  0  0  0  0  0  0
   -4.4143  -15.2396  -98.6810 N   0  0  0  0  0  0  0  0  0  0  0  0
    4.3577  -12.0582  -94.3470 O   0  5  0  0  0  0  0  0  0  0  0  0
    4.3785  -12.2339  -98.8726 O   0  0  0  0  0  0  0  0  0  0  0  0
   -1.6256  -11.6672  -94.5671 S   0  0  0  0  0  0  0  0  0  0  0  0
   -2.4432  -12.1740  -95.8827 C   0  0  0  0  0  0  0  0  0  0  0  0
    3.2387  -14.1852  -94.7359 O   0  0  0  0  0  0  0  0  0  0  0  0
    3.9190  -14.4217  -97.7388 O   0  5  0  0  0  0  0  0  0  0  0  0
   -2.0447  -11.5948  -97.0726 N   0  0  0  0  0  0  0  0  0  0  0  0
    3.2969  -12.2676  -96.6236 O   0  0  0  0  0  0  0  0  0  0  0  0
    5.7634  -12.9320  -96.9720 O   0  0  0  0  0  0  0  0  0  0  0  0
   -1.0210  -10.7172  -96.8131 C   0  0  1  0  0  0  0  0  0  0  0  0
   -0.7133  -10.6926  -95.4437 C   0  0  2  0  0  0  0  0  0  0  0  0
    0.2938   -9.9614  -94.5907 C   0  0  0  0  0  0  0  0  0  0  0  0
    1.7248  -10.4010  -94.9182 C   0  0  0  0  0  0  0  0  0  0  0  0
    1.8345  -11.8103  -94.7607 O   0  0  0  0  0  0  0  0  0  0  0  0
  1 11  1  0  0  0  0
  3 13  1  1  0  0  0
  3 17  2  0  0  0  0
  3 20  1  0  0  0  0
  3 26  1  0  0  0  0
  4 14  1  6  0  0  0
  4 18  1  0  0  0  0
  4 21  2  0  0  0  0
  4 20  1  0  0  0  0
  5 19  1  0  0  0  0
  5  7  1  0  0  0  0
  6  7  2  0  0  0  0
  6 12  1  0  0  0  0
  7  8  1  0  0  0  0
  8  9  1  0  0  0  0
  8 10  2  0  0  0  0
 10 11  1  0  0  0  0
 11 12  2  0  0  0  0
 15 23  1  0  0  0  0
 15 16  1  0  0  0  0
 16 19  1  0  0  0  0
 19 22  1  0  0  0  0
 22  2  1  6  0  0  0
 22 23  1  0  0  0  0
 23 24  1  6  0  0  0
 24 25  1  0  0  0  0
 25 26  1  0  0  0  0
M  CHG  2  13  -1  18  -1
M  END
>  <CHROM.1>
76.62809590,-42.54205396,104.74318792,-171.40714357,113.27472424,-56.34315973
177.43841881,51.06870572,0.52298768,-12.81436126,-96.83855004,-2.75529007
-0.06320627,0.71716546

>  <Name>
ligand

>  <RI>
0

>  <Rbt.Current_Directory>
/home/itssahil/PROJECTS/Mol_Feturizer/New_Systems/rnas/2CKY

>  <Rbt.Executable>
rbdock ($Id: //depot/dev/client3/rdock/2013.1/src/exe/rbdock.cxx#4 $)

>  <Rbt.Library>
libRbt.so (2013.1, Build901 2013/11/27)

>  <Rbt.Parameter_File>
/export/apps/rDock/src/rDock_2013.1_src/data/scripts/dock_solv.prm

>  <Rbt.Receptor>
prm/pocket_docking_7.prm

>  <SCORE>
-19.2745

>  <SCORE.INTER>
-13.1485

>  <SCORE.INTER.CONST>
1

>  <SCORE.INTER.POLAR>
0

>  <SCORE.INTER.ROT>
8

>  <SCORE.INTER.SOLV>
9.61602

>  <SCORE.INTER.VDW>
-20.9044

>  <SCORE.INTER.norm>
-0.505713

>  <SCORE.INTRA>
-6.12601

>  <SCORE.INTRA.DIHEDRAL>
-11.1884

>  <SCORE.INTRA.DIHEDRAL.0>
16.4846

>  <SCORE.INTRA.POLAR>
0

>  <SCORE.INTRA.POLAR.0>
0

>  <SCORE.INTRA.REPUL>
0

>  <SCORE.INTRA.REPUL.0>
0

>  <SCORE.INTRA.SOLV>
2.72986

>  <SCORE.INTRA.SOLV.lig_0>
-82.6983

>  <SCORE.INTRA.VDW>
-1.89673

>  <SCORE.INTRA.VDW.0>
-2.11466

>  <SCORE.INTRA.norm>
-0.235616

>  <SCORE.RESTR>
0

>  <SCORE.RESTR.CAVITY>
0

>  <SCORE.RESTR.norm>
0

>  <SCORE.SYSTEM>
0

>  <SCORE.SYSTEM.CONST>
0

>  <SCORE.SYSTEM.DIHEDRAL>
0

>  <SCORE.SYSTEM.SOLV>
0

>  <SCORE.SYSTEM.norm>
0

>  <SCORE.heavy>
26

>  <SCORE.norm>
-0.741329

>  <RMSD>
8.328

$$$$
ligand
 OpenBabel11021811423D
libRbt.so/2013.1/901 2013/11/27
 26 27  0  0  0  0  0  0  0  0999 V2000
   -3.9887  -17.2922  -99.0597 C   0  0  0  0  0  0  0  0  0  0  0  0
   -0.4729  -10.4964  -95.9673 C   0  0  0  0  0  0  0  0  0  0  0  0
    4.0571  -13.3208  -97.3319 P   0  0  2  0  0  0  0  0  0  0  0  0
    4.1668  -15.2510  -95.3488 P   0  0  2  0  0  0  0  0  0  0  0  0
   -2.3776  -11.8808  -98.0665 C   0  0  0  0  0  0  0  0  0  0  0  0
   -3.1035  -13.7210  -99.5656 C   0  0  0  0  0  0  0  0  0  0  0  0
   -2.8183  -13.3029  -98.2723 C   0  0  0  0  0  0  0  0  0  0  0  0
   -2.8996  -14.2309  -97.2300 C   0  0  0  0  0  0  0  0  0  0  0  0
   -2.6370  -13.9493  -95.9535 N   0  0  0  0  0  0  0  0  0  0  0  0
   -3.2768  -15.5182  -97.5130 N   0  0  0  0  0  0  0  0  0  0  0  0
   -3.5704  -15.8953  -98.7932 C   0  0  0  0  0  0  0  0  0  0  0  0
   -3.4859  -15.0191  -99.8275 N   0  0  0  0  0  0  0  0  0  0  0  0
    3.2907  -14.3685  -98.1149 O   0  5  0  0  0  0  0  0  0  0  0  0
    5.1697  -15.7451  -94.3306 O   0  0  0  0  0  0  0  0  0  0  0  0
    1.3548  -11.6391  -99.2410 S   0  0  0  0  0  0  0  0  0  0  0  0
   -0.2284  -12.0213  -99.3018 C   0  0  0  0  0  0  0  0  0  0  0  0
    4.8474  -12.5124  -98.3574 O   0  0  0  0  0  0  0  0  0  0  0  0
    3.7809  -16.3380  -96.3312 O   0  5  0  0  0  0  0  0  0  0  0  0
   -0.9554  -11.6634  -98.1822 N   0  0  0  0  0  0  0  0  0  0  0  0
    4.8823  -14.0942  -96.1800 O   0  0  0  0  0  0  0  0  0  0  0  0
    2.9469  -14.7450  -94.6062 O   0  0  0  0  0  0  0  0  0  0  0  0
   -0.1122  -11.0518  -97.2876 C   0  0  1  0  0  0  0  0  0  0  0  0
    1.1963  -10.9872  -97.7916 C   0  0  2  0  0  0  0  0  0  0  0  0
    2.5064  -10.4335  -97.2878 C   0  0  0  0  0  0  0  0  0  0  0  0
    2.9801  -11.1770  -96.0344 C   0  0  0  0  0  0  0  0  0  0  0  0
    3.0129  -12.5744  -96.2974 O   0  0  0  0  0  0  0  0  0  0  0  0
  1 11  1  0  0  0  0
  3 13  1  6  0  0  0
  3 17  2  0  0  0  0
  3 20  1  0  0  0  0
  3 26  1  0  0  0  0
  4 14  1  1  0  0  0
  4 18  1  0  0  0  0
  4 21  2  0  0  0  0
  4 20  1  0  0  0  0
  5 19  1  0  0  0  0
  5  7  1  0  0  0  0
  6  7  2  0  0  0  0
  6 12  1  0  0  0  0
  7  8  1  0  0  0  0
  8  9  1  0  0  0  0
  8 10  2  0  0  0  0
 10 11  1  0  0  0  0
 11 12  2  0  0  0  0
 15 23  1  0  0  0  0
 15 16  1  0  0  0  0
 16 19  1  0  0  0  0
 19 22  1  0  0  0  0
 22  2  1  6  0  0  0
 22 23  1  0  0  0  0
 23 24  1  6  0  0  0
 24 25  1  0  0  0  0
 25 26  1  0  0  0  0
M  CHG  2  13  -1  18  -1
M  END
>  <CHROM.1>
-43.47259847,55.55774025,-88.16757780,-178.27556548,-116.02717016,53.45158901
67.98424523,-138.45400562,1.04713768,-13.46943813,-97.32289334,3.08499352
-0.30168386,-0.28062440

>  <Name>
ligand

>  <RI>
0

>  <Rbt.Current_Directory>
/home/itssahil/PROJECTS/Mol_Feturizer/New_Systems/rnas/2CKY

>  <Rbt.Executable>
rbdock ($Id: //depot/dev/client3/rdock/2013.1/src/exe/rbdock.cxx#4 $)

>  <Rbt.Library>
libRbt.so (2013.1, Build901 2013/11/27)

>  <Rbt.Parameter_File>
/export/apps/rDock/src/rDock_2013.1_src/data/scripts/dock_solv.prm

>  <Rbt.Receptor>
prm/pocket_docking_7.prm

>  <SCORE>
-13.4208

>  <SCORE.INTER>
-8.59638

>  <SCORE.INTER.CONST>
1

>  <SCORE.INTER.POLAR>
0

>  <SCORE.INTER.ROT>
8

>  <SCORE.INTER.SOLV>
11.949

>  <SCORE.INTER.VDW>
-18.6472

>  <SCORE.INTER.norm>
-0.33063

>  <SCORE.INTRA>
-4.8244

>  <SCORE.INTRA.DIHEDRAL>
-9.20373

>  <SCORE.INTRA.DIHEDRAL.0>
16.4846

>  <SCORE.INTRA.POLAR>
0

>  <SCORE.INTRA.POLAR.0>
0

>  <SCORE.INTRA.REPUL>
0

>  <SCORE.INTRA.REPUL.0>
0

>  <SCORE.INTRA.SOLV>
4.58957

>  <SCORE.INTRA.SOLV.lig_0>
-82.6983

>  <SCORE.INTRA.VDW>
-2.51732

>  <SCORE.INTRA.VDW.0>
-2.11466

>  <SCORE.INTRA.norm>
-0.185554

>  <SCORE.RESTR>
0

>  <SCORE.RESTR.CAVITY>
0

>  <SCORE.RESTR.norm>
0

>  <SCORE.SYSTEM>
0

>  <SCORE.SYSTEM.CONST>
0

>  <SCORE.SYSTEM.DIHEDRAL>
0

>  <SCORE.SYSTEM.SOLV>
0

>  <SCORE.SYSTEM.norm>
0

>  <SCORE.heavy>
26

>  <SCORE.norm>
-0.516184

>  <RMSD>
8.347

$$$$
ligand
 OpenBabel11021811423D
libRbt.so/2013.1/901 2013/11/27
 26 27  0  0  0  0  0  0  0  0999 V2000
   -0.2838  -21.0805  -98.9490 C   0  0  0  0  0  0  0  0  0  0  0  0
    2.8479  -13.9337 -100.0904 C   0  0  0  0  0  0  0  0  0  0  0  0
    2.5669  -14.2032  -94.8484 P   0  0  2  0  0  0  0  0  0  0  0  0
    0.9863  -11.9704  -95.2805 P   0  0  2  0  0  0  0  0  0  0  0  0
    3.1265  -16.9462 -100.9842 C   0  0  0  0  0  0  0  0  0  0  0  0
    2.6078  -19.3195 -100.4757 C   0  0  0  0  0  0  0  0  0  0  0  0
    2.1870  -17.9960 -100.4608 C   0  0  0  0  0  0  0  0  0  0  0  0
    0.9374  -17.6915  -99.9130 C   0  0  0  0  0  0  0  0  0  0  0  0
    0.4344  -16.4593  -99.8325 N   0  0  0  0  0  0  0  0  0  0  0  0
    0.1586  -18.7091  -99.4259 N   0  0  0  0  0  0  0  0  0  0  0  0
    0.5914  -20.0044  -99.4720 C   0  0  0  0  0  0  0  0  0  0  0  0
    1.8066  -20.3282  -99.9851 N   0  0  0  0  0  0  0  0  0  0  0  0
    1.2744  -14.9166  -95.1927 O   0  5  0  0  0  0  0  0  0  0  0  0
    1.0111  -10.5073  -94.8993 O   0  0  0  0  0  0  0  0  0  0  0  0
    5.6784  -15.8822  -98.2048 S   0  0  0  0  0  0  0  0  0  0  0  0
    4.9151  -16.8575  -99.2643 C   0  0  0  0  0  0  0  0  0  0  0  0
    3.2386  -15.0352  -93.7590 O   0  0  0  0  0  0  0  0  0  0  0  0
   -0.2925  -12.6470  -94.8306 O   0  5  0  0  0  0  0  0  0  0  0  0
    3.8911  -16.2572  -99.9722 N   0  0  0  0  0  0  0  0  0  0  0  0
    2.1903  -12.6713  -94.5057 O   0  0  0  0  0  0  0  0  0  0  0  0
    1.1434  -12.0717  -96.7841 O   0  0  0  0  0  0  0  0  0  0  0  0
    3.7948  -14.9452  -99.5785 C   0  0  1  0  0  0  0  0  0  0  0  0
    4.7538  -14.6412  -98.5996 C   0  0  2  0  0  0  0  0  0  0  0  0
    5.1313  -13.4020  -97.8260 C   0  0  0  0  0  0  0  0  0  0  0  0
    4.7416  -13.5270  -96.3492 C   0  0  0  0  0  0  0  0  0  0  0  0
    3.3614  -13.8558  -96.2504 O   0  0  0  0  0  0  0  0  0  0  0  0
  1 11  1  0  0  0  0
  3 13  1  6  0  0  0
  3 17  2  0  0  0  0
  3 20  1  0  0  0  0
  3 26  1  0  0  0  0
  4 14  1  1  0  0  0
  4 18  1  0  0  0  0
  4 21  2  0  0  0  0
  4 20  1  0  0  0  0
  5 19  1  0  0  0  0
  5  7  1  0  0  0  0
  6  7  2  0  0  0  0
  6 12  1  0  0  0  0
  7  8  1  0  0  0  0
  8  9  1  0  0  0  0
  8 10  2  0  0  0  0
 10 11  1  0  0  0  0
 11 12  2  0  0  0  0
 15 23  1  0  0  0  0
 15 16  1  0  0  0  0
 16 19  1  0  0  0  0
 19 22  1  0  0  0  0
 22  2  1  6  0  0  0
 22 23  1  0  0  0  0
 23 24  1  6  0  0  0
 24 25  1  0  0  0  0
 25 26  1  0  0  0  0
M  CHG  2  13  -1  18  -1
M  END
>  <CHROM.1>
-33.71071135,71.03282595,-97.41566983,-171.78858899,-70.61843740,-53.88080537
174.69195786,-162.08022163,2.46160901,-15.28434715,-97.55193000,1.56398102
-0.38300700,-2.47995927

>  <Name>
ligand

>  <RI>
0

>  <Rbt.Current_Directory>
/home/itssahil/PROJECTS/Mol_Feturizer/New_Systems/rnas/2CKY

>  <Rbt.Executable>
rbdock ($Id: //depot/dev/client3/rdock/2013.1/src/exe/rbdock.cxx#4 $)

>  <Rbt.Library>
libRbt.so (2013.1, Build901 2013/11/27)

>  <Rbt.Parameter_File>
/export/apps/rDock/src/rDock_2013.1_src/data/scripts/dock_solv.prm

>  <Rbt.Receptor>
prm/pocket_docking_6.prm

>  <SCORE>
-13.1714

>  <SCORE.INTER>
-8.60454

>  <SCORE.INTER.CONST>
1

>  <SCORE.INTER.POLAR>
0

>  <SCORE.INTER.ROT>
8

>  <SCORE.INTER.SOLV>
3.19945

>  <SCORE.INTER.VDW>
-15.7362

>  <SCORE.INTER.norm>
-0.330944

>  <SCORE.INTRA>
-4.56685

>  <SCORE.INTRA.DIHEDRAL>
-9.50786

>  <SCORE.INTRA.DIHEDRAL.0>
16.4846

>  <SCORE.INTRA.POLAR>
0

>  <SCORE.INTRA.POLAR.0>
0

>  <SCORE.INTRA.REPUL>
0

>  <SCORE.INTRA.REPUL.0>
0

>  <SCORE.INTRA.SOLV>
4.20715

>  <SCORE.INTRA.SOLV.lig_0>
-82.6983

>  <SCORE.INTRA.VDW>
-1.9165

>  <SCORE.INTRA.VDW.0>
-2.11466

>  <SCORE.INTRA.norm>
-0.175648

>  <SCORE.RESTR>
0

>  <SCORE.RESTR.CAVITY>
0

>  <SCORE.RESTR.norm>
0

>  <SCORE.SYSTEM>
0

>  <SCORE.SYSTEM.CONST>
0

>  <SCORE.SYSTEM.DIHEDRAL>
0

>  <SCORE.SYSTEM.SOLV>
0

>  <SCORE.SYSTEM.norm>
0

>  <SCORE.heavy>
26

>  <SCORE.norm>
-0.506592

>  <RMSD>
8.371

$$$$
ligand
 OpenBabel11021811423D
libRbt.so/2013.1/901 2013/11/27
 26 27  0  0  0  0  0  0  0  0999 V2000
   -2.3553  -18.9467 -100.1954 C   0  0  0  0  0  0  0  0  0  0  0  0
   -2.7637  -14.8102  -96.0059 C   0  0  0  0  0  0  0  0  0  0  0  0
    1.7242  -14.9239  -95.8121 P   0  0  2  0  0  0  0  0  0  0  0  0
    3.4389  -16.2381  -94.0791 P   0  0  2  0  0  0  0  0  0  0  0  0
   -4.0044  -13.6714  -98.6734 C   0  0  0  0  0  0  0  0  0  0  0  0
   -4.3148  -16.1320  -98.7703 C   0  0  0  0  0  0  0  0  0  0  0  0
   -3.5174  -15.0359  -99.0730 C   0  0  0  0  0  0  0  0  0  0  0  0
   -2.3291  -15.2409  -99.7803 C   0  0  0  0  0  0  0  0  0  0  0  0
   -1.4918  -14.2667 -100.1374 N   0  0  0  0  0  0  0  0  0  0  0  0
   -1.9782  -16.5176 -100.1359 N   0  0  0  0  0  0  0  0  0  0  0  0
   -2.7738  -17.5787  -99.8069 C   0  0  0  0  0  0  0  0  0  0  0  0
   -3.9406  -17.4081  -99.1330 N   0  0  0  0  0  0  0  0  0  0  0  0
    1.3164  -16.1569  -96.5942 O   0  5  0  0  0  0  0  0  0  0  0  0
    3.3077  -17.5212  -94.8685 O   0  0  0  0  0  0  0  0  0  0  0  0
   -1.8825  -11.0500  -96.6747 S   0  0  0  0  0  0  0  0  0  0  0  0
   -2.8040  -11.6485  -97.8784 C   0  0  0  0  0  0  0  0  0  0  0  0
    2.8102  -14.2348  -96.6341 O   0  0  0  0  0  0  0  0  0  0  0  0
    3.5447  -16.5019  -92.5909 O   0  5  0  0  0  0  0  0  0  0  0  0
   -3.1583  -12.9764  -97.7328 N   0  0  0  0  0  0  0  0  0  0  0  0
    2.0992  -15.4080  -94.3185 O   0  0  0  0  0  0  0  0  0  0  0  0
    4.6626  -15.4970  -94.5783 O   0  0  0  0  0  0  0  0  0  0  0  0
   -2.6202  -13.4491  -96.5613 C   0  0  1  0  0  0  0  0  0  0  0  0
   -1.8956  -12.4458  -95.8987 C   0  0  2  0  0  0  0  0  0  0  0  0
   -1.1222  -12.3672  -94.6056 C   0  0  0  0  0  0  0  0  0  0  0  0
    0.3326  -12.8082  -94.7991 C   0  0  0  0  0  0  0  0  0  0  0  0
    0.3601  -14.1100  -95.3715 O   0  0  0  0  0  0  0  0  0  0  0  0
  1 11  1  0  0  0  0
  3 13  1  6  0  0  0
  3 17  2  0  0  0  0
  3 20  1  0  0  0  0
  3 26  1  0  0  0  0
  4 14  1  6  0  0  0
  4 18  1  0  0  0  0
  4 21  2  0  0  0  0
  4 20  1  0  0  0  0
  5 19  1  0  0  0  0
  5  7  1  0  0  0  0
  6  7  2  0  0  0  0
  6 12  1  0  0  0  0
  7  8  1  0  0  0  0
  8  9  1  0  0  0  0
  8 10  2  0  0  0  0
 10 11  1  0  0  0  0
 11 12  2  0  0  0  0
 15 23  1  0  0  0  0
 15 16  1  0  0  0  0
 16 19  1  0  0  0  0
 19 22  1  0  0  0  0
 22  2  1  1  0  0  0
 22 23  1  0  0  0  0
 23 24  1  1  0  0  0
 24 25  1  0  0  0  0
 25 26  1  0  0  0  0
M  CHG  2  13  -1  18  -1
M  END
>  <CHROM.1>
71.43564837,134.38671774,118.03827741,-62.02972490,-93.25084954,-55.02688104
176.76334837,-170.24119949,-0.34989798,-14.82095849,-96.67256528,-2.98395968
-0.60595716,0.47185858

>  <Name>
ligand

>  <RI>
0

>  <Rbt.Current_Directory>
/home/itssahil/PROJECTS/Mol_Feturizer/New_Systems/rnas/2CKY

>  <Rbt.Executable>
rbdock ($Id: //depot/dev/client3/rdock/2013.1/src/exe/rbdock.cxx#4 $)

>  <Rbt.Library>
libRbt.so (2013.1, Build901 2013/11/27)

>  <Rbt.Parameter_File>
/export/apps/rDock/src/rDock_2013.1_src/data/scripts/dock_solv.prm

>  <Rbt.Receptor>
prm/pocket_docking_6.prm

>  <SCORE>
-20.0264

>  <SCORE.INTER>
-13.1341

>  <SCORE.INTER.CONST>
1

>  <SCORE.INTER.POLAR>
0

>  <SCORE.INTER.ROT>
8

>  <SCORE.INTER.SOLV>
11.2162

>  <SCORE.INTER.VDW>
-21.4281

>  <SCORE.INTER.norm>
-0.505157

>  <SCORE.INTRA>
-6.8923

>  <SCORE.INTRA.DIHEDRAL>
-11.0517

>  <SCORE.INTRA.DIHEDRAL.0>
16.4846

>  <SCORE.INTRA.POLAR>
0

>  <SCORE.INTRA.POLAR.0>
0

>  <SCORE.INTRA.REPUL>
0

>  <SCORE.INTRA.REPUL.0>
0

>  <SCORE.INTRA.SOLV>
1.65375

>  <SCORE.INTRA.SOLV.lig_0>
-82.6983

>  <SCORE.INTRA.VDW>
-2.19334

>  <SCORE.INTRA.VDW.0>
-2.11466

>  <SCORE.INTRA.norm>
-0.265089

>  <SCORE.RESTR>
0

>  <SCORE.RESTR.CAVITY>
0

>  <SCORE.RESTR.norm>
0

>  <SCORE.SYSTEM>
0

>  <SCORE.SYSTEM.CONST>
0

>  <SCORE.SYSTEM.DIHEDRAL>
0

>  <SCORE.SYSTEM.SOLV>
0

>  <SCORE.SYSTEM.norm>
0

>  <SCORE.heavy>
26

>  <SCORE.norm>
-0.770246

>  <RMSD>
8.378

$$$$
ligand
 OpenBabel11021811423D
libRbt.so/2013.1/901 2013/11/27
 26 27  0  0  0  0  0  0  0  0999 V2000
   -2.8801  -20.3529 -100.2460 C   0  0  0  0  0  0  0  0  0  0  0  0
   -2.4180  -11.9373  -98.1914 C   0  0  0  0  0  0  0  0  0  0  0  0
    1.0786  -14.2518  -93.7328 P   0  0  2  0  0  0  0  0  0  0  0  0
    3.2429  -14.4427  -95.4503 P   0  0  2  0  0  0  0  0  0  0  0  0
   -3.4421  -14.7435  -99.2052 C   0  0  0  0  0  0  0  0  0  0  0  0
   -4.2662  -17.0842  -99.1565 C   0  0  0  0  0  0  0  0  0  0  0  0
   -3.2375  -16.2075  -99.4761 C   0  0  0  0  0  0  0  0  0  0  0  0
   -2.0841  -16.7135 -100.0826 C   0  0  0  0  0  0  0  0  0  0  0  0
   -1.0396  -15.9684 -100.4454 N   0  0  0  0  0  0  0  0  0  0  0  0
   -1.9957  -18.0599 -100.3252 N   0  0  0  0  0  0  0  0  0  0  0  0
   -3.0166  -18.9007  -99.9816 C   0  0  0  0  0  0  0  0  0  0  0  0
   -4.1547  -18.4355  -99.4045 N   0  0  0  0  0  0  0  0  0  0  0  0
    1.7513  -13.3156  -92.7483 O   0  5  0  0  0  0  0  0  0  0  0  0
    4.0868  -13.8722  -94.3327 O   0  0  0  0  0  0  0  0  0  0  0  0
   -2.9823  -14.5418  -95.3172 S   0  0  0  0  0  0  0  0  0  0  0  0
   -3.3590  -15.1902  -96.7642 C   0  0  0  0  0  0  0  0  0  0  0  0
    1.2001  -15.6540  -93.1423 O   0  0  0  0  0  0  0  0  0  0  0  0
    3.6480  -13.8873  -96.8005 O   0  5  0  0  0  0  0  0  0  0  0  0
   -3.1992  -14.3389  -97.8412 N   0  0  0  0  0  0  0  0  0  0  0  0
    1.7416  -13.9804  -95.1794 O   0  0  0  0  0  0  0  0  0  0  0  0
    3.3848  -15.9511  -95.4293 O   0  0  0  0  0  0  0  0  0  0  0  0
   -2.7412  -13.1290  -97.3808 C   0  0  1  0  0  0  0  0  0  0  0  0
   -2.5844  -13.1471  -95.9860 C   0  0  2  0  0  0  0  0  0  0  0  0
   -2.1148  -12.1524  -94.9533 C   0  0  0  0  0  0  0  0  0  0  0  0
   -0.6230  -12.3274  -94.6494 C   0  0  0  0  0  0  0  0  0  0  0  0
   -0.3973  -13.6285  -94.1213 O   0  0  0  0  0  0  0  0  0  0  0  0
  1 11  1  0  0  0  0
  3 13  1  1  0  0  0
  3 17  2  0  0  0  0
  3 20  1  0  0  0  0
  3 26  1  0  0  0  0
  4 14  1  1  0  0  0
  4 18  1  0  0  0  0
  4 21  2  0  0  0  0
  4 20  1  0  0  0  0
  5 19  1  0  0  0  0
  5  7  1  0  0  0  0
  6  7  2  0  0  0  0
  6 12  1  0  0  0  0
  7  8  1  0  0  0  0
  8  9  1  0  0  0  0
  8 10  2  0  0  0  0
 10 11  1  0  0  0  0
 11 12  2  0  0  0  0
 15 23  1  0  0  0  0
 15 16  1  0  0  0  0
 16 19  1  0  0  0  0
 19 22  1  0  0  0  0
 22  2  1  6  0  0  0
 22 23  1  0  0  0  0
 23 24  1  6  0  0  0
 24 25  1  0  0  0  0
 25 26  1  0  0  0  0
M  CHG  2  13  -1  18  -1
M  END
>  <CHROM.1>
70.81644163,-27.89502290,81.76673726,-52.10823297,85.13701396,-61.41091226
176.75915510,55.82469481,-0.67583387,-14.95867118,-96.55821860,-2.33677360
-0.29369448,0.74826696

>  <Name>
ligand

>  <RI>
0

>  <Rbt.Current_Directory>
/home/itssahil/PROJECTS/Mol_Feturizer/New_Systems/rnas/2CKY

>  <Rbt.Executable>
rbdock ($Id: //depot/dev/client3/rdock/2013.1/src/exe/rbdock.cxx#4 $)

>  <Rbt.Library>
libRbt.so (2013.1, Build901 2013/11/27)

>  <Rbt.Parameter_File>
/export/apps/rDock/src/rDock_2013.1_src/data/scripts/dock_solv.prm

>  <Rbt.Receptor>
prm/pocket_docking_7.prm

>  <SCORE>
-20.6525

>  <SCORE.INTER>
-13.9187

>  <SCORE.INTER.CONST>
1

>  <SCORE.INTER.POLAR>
0

>  <SCORE.INTER.ROT>
8

>  <SCORE.INTER.SOLV>
6.53716

>  <SCORE.INTER.VDW>
-20.3915

>  <SCORE.INTER.norm>
-0.535336

>  <SCORE.INTRA>
-6.73372

>  <SCORE.INTRA.DIHEDRAL>
-11.0824

>  <SCORE.INTRA.DIHEDRAL.0>
16.4846

>  <SCORE.INTRA.POLAR>
0

>  <SCORE.INTRA.POLAR.0>
0

>  <SCORE.INTRA.REPUL>
0

>  <SCORE.INTRA.REPUL.0>
0

>  <SCORE.INTRA.SOLV>
0.0559385

>  <SCORE.INTRA.SOLV.lig_0>
-82.6983

>  <SCORE.INTRA.VDW>
-1.2205

>  <SCORE.INTRA.VDW.0>
-2.11466

>  <SCORE.INTRA.norm>
-0.258989

>  <SCORE.RESTR>
0

>  <SCORE.RESTR.CAVITY>
0

>  <SCORE.RESTR.norm>
0

>  <SCORE.SYSTEM>
0

>  <SCORE.SYSTEM.CONST>
0

>  <SCORE.SYSTEM.DIHEDRAL>
0

>  <SCORE.SYSTEM.SOLV>
0

>  <SCORE.SYSTEM.norm>
0

>  <SCORE.heavy>
26

>  <SCORE.norm>
-0.794325

>  <RMSD>
8.412

$$$$
ligand
 OpenBabel11021811423D
libRbt.so/2013.1/901 2013/11/27
 26 27  0  0  0  0  0  0  0  0999 V2000
   -3.1600  -21.7845  -97.3455 C   0  0  0  0  0  0  0  0  0  0  0  0
   -2.5831  -13.1209  -99.0365 C   0  0  0  0  0  0  0  0  0  0  0  0
    0.0454  -12.3141  -93.2075 P   0  0  2  0  0  0  0  0  0  0  0  0
   -0.0961  -11.1195  -90.7128 P   0  0  2  0  0  0  0  0  0  0  0  0
   -2.6183  -16.2666  -98.8029 C   0  0  0  0  0  0  0  0  0  0  0  0
   -3.8564  -18.4170  -98.7485 C   0  0  0  0  0  0  0  0  0  0  0  0
   -2.7239  -17.7040  -98.3769 C   0  0  0  0  0  0  0  0  0  0  0  0
   -1.7117  -18.3640  -97.6741 C   0  0  0  0  0  0  0  0  0  0  0  0
   -0.5767  -17.7879  -97.2769 N   0  0  0  0  0  0  0  0  0  0  0  0
   -1.8761  -19.6874  -97.3564 N   0  0  0  0  0  0  0  0  0  0  0  0
   -3.0105  -20.3577  -97.7186 C   0  0  0  0  0  0  0  0  0  0  0  0
   -4.0038  -19.7462  -98.4144 N   0  0  0  0  0  0  0  0  0  0  0  0
    0.3976  -13.6945  -92.6896 O   0  5  0  0  0  0  0  0  0  0  0  0
    0.3836  -12.3756  -90.0209 O   0  0  0  0  0  0  0  0  0  0  0  0
   -2.9143  -14.4246  -95.3550 S   0  0  0  0  0  0  0  0  0  0  0  0
   -2.8439  -15.6706  -96.4031 C   0  0  0  0  0  0  0  0  0  0  0  0
    1.3603  -11.6692  -93.6375 O   0  0  0  0  0  0  0  0  0  0  0  0
   -1.1235  -10.3776  -89.8823 O   0  5  0  0  0  0  0  0  0  0  0  0
   -2.7350  -15.3061  -97.7318 N   0  0  0  0  0  0  0  0  0  0  0  0
   -0.8173  -11.5785  -92.0583 O   0  0  0  0  0  0  0  0  0  0  0  0
    1.1065  -10.2391  -90.9853 O   0  0  0  0  0  0  0  0  0  0  0  0
   -2.7084  -13.9355  -97.8108 C   0  0  1  0  0  0  0  0  0  0  0  0
   -2.7979  -13.3554  -96.5357 C   0  0  2  0  0  0  0  0  0  0  0  0
   -2.8017  -11.9429  -96.0053 C   0  0  0  0  0  0  0  0  0  0  0  0
   -1.4566  -11.5850  -95.3643 C   0  0  0  0  0  0  0  0  0  0  0  0
   -1.2067  -12.4586  -94.2701 O   0  0  0  0  0  0  0  0  0  0  0  0
  1 11  1  0  0  0  0
  3 13  1  1  0  0  0
  3 17  2  0  0  0  0
  3 20  1  0  0  0  0
  3 26  1  0  0  0  0
  4 14  1  1  0  0  0
  4 18  1  0  0  0  0
  4 21  2  0  0  0  0
  4 20  1  0  0  0  0
  5 19  1  0  0  0  0
  5  7  1  0  0  0  0
  6  7  2  0  0  0  0
  6 12  1  0  0  0  0
  7  8  1  0  0  0  0
  8  9  1  0  0  0  0
  8 10  2  0  0  0  0
 10 11  1  0  0  0  0
 11 12  2  0  0  0  0
 15 23  1  0  0  0  0
 15 16  1  0  0  0  0
 16 19  1  0  0  0  0
 19 22  1  0  0  0  0
 22  2  1  1  0  0  0
 22 23  1  0  0  0  0
 23 24  1  1  0  0  0
 24 25  1  0  0  0  0
 25 26  1  0  0  0  0
M  CHG  2  13  -1  18  -1
M  END
>  <CHROM.1>
70.60716977,4.24002141,110.15304693,-64.05871744,75.14896500,-61.00365504
-172.91141291,-151.34644697,-1.53251788,-14.39382314,-95.04465835,-2.31915367
-1.14461001,0.02639317

>  <Name>
ligand

>  <RI>
0

>  <Rbt.Current_Directory>
/home/itssahil/PROJECTS/Mol_Feturizer/New_Systems/rnas/2CKY

>  <Rbt.Executable>
rbdock ($Id: //depot/dev/client3/rdock/2013.1/src/exe/rbdock.cxx#4 $)

>  <Rbt.Library>
libRbt.so (2013.1, Build901 2013/11/27)

>  <Rbt.Parameter_File>
/export/apps/rDock/src/rDock_2013.1_src/data/scripts/dock_solv.prm

>  <Rbt.Receptor>
prm/pocket_docking_8.prm

>  <SCORE>
-24.4128

>  <SCORE.INTER>
-19.2468

>  <SCORE.INTER.CONST>
1

>  <SCORE.INTER.POLAR>
0

>  <SCORE.INTER.ROT>
8

>  <SCORE.INTER.SOLV>
15.8754

>  <SCORE.INTER.VDW>
-27.0563

>  <SCORE.INTER.norm>
-0.740262

>  <SCORE.INTRA>
-5.16602

>  <SCORE.INTRA.DIHEDRAL>
-9.59829

>  <SCORE.INTRA.DIHEDRAL.0>
16.4846

>  <SCORE.INTRA.POLAR>
0

>  <SCORE.INTRA.POLAR.0>
0

>  <SCORE.INTRA.REPUL>
0

>  <SCORE.INTRA.REPUL.0>
0

>  <SCORE.INTRA.SOLV>
1.05389

>  <SCORE.INTRA.SOLV.lig_0>
-82.6983

>  <SCORE.INTRA.VDW>
-0.893818

>  <SCORE.INTRA.VDW.0>
-2.11466

>  <SCORE.INTRA.norm>
-0.198693

>  <SCORE.RESTR>
0

>  <SCORE.RESTR.CAVITY>
0

>  <SCORE.RESTR.norm>
0

>  <SCORE.SYSTEM>
0

>  <SCORE.SYSTEM.CONST>
0

>  <SCORE.SYSTEM.DIHEDRAL>
0

>  <SCORE.SYSTEM.SOLV>
0

>  <SCORE.SYSTEM.norm>
0

>  <SCORE.heavy>
26

>  <SCORE.norm>
-0.938955

>  <RMSD>
8.414

$$$$
ligand
 OpenBabel11021811423D
libRbt.so/2013.1/901 2013/11/27
 26 27  0  0  0  0  0  0  0  0999 V2000
   -2.8183  -11.6008  -95.7613 C   0  0  0  0  0  0  0  0  0  0  0  0
    2.8704  -15.1190  -99.3046 C   0  0  0  0  0  0  0  0  0  0  0  0
    0.0823  -18.7026  -97.8628 P   0  0  2  0  0  0  0  0  0  0  0  0
    0.5284  -18.3231  -95.1559 P   0  0  2  0  0  0  0  0  0  0  0  0
    1.0942  -12.5672  -99.8384 C   0  0  0  0  0  0  0  0  0  0  0  0
   -1.2005  -12.7321  -98.9071 C   0  0  0  0  0  0  0  0  0  0  0  0
    0.0994  -12.2683  -98.7522 C   0  0  0  0  0  0  0  0  0  0  0  0
    0.4397  -11.5948  -97.5754 C   0  0  0  0  0  0  0  0  0  0  0  0
    1.6559  -11.1171  -97.3101 N   0  0  0  0  0  0  0  0  0  0  0  0
   -0.5235  -11.3958  -96.6203 N   0  0  0  0  0  0  0  0  0  0  0  0
   -1.7995  -11.8467  -96.8095 C   0  0  0  0  0  0  0  0  0  0  0  0
   -2.1550  -12.5167  -97.9362 N   0  0  0  0  0  0  0  0  0  0  0  0
   -1.1570  -17.8349  -97.7669 O   0  5  0  0  0  0  0  0  0  0  0  0
   -0.1333  -19.6706  -94.9738 O   0  0  0  0  0  0  0  0  0  0  0  0
    0.0681  -15.6818 -101.9867 S   0  0  0  0  0  0  0  0  0  0  0  0
    0.0108  -14.1607 -101.4043 C   0  0  0  0  0  0  0  0  0  0  0  0
   -0.4081  -20.1475  -97.9014 O   0  0  0  0  0  0  0  0  0  0  0  0
   -0.4578  -17.1852  -94.9887 O   0  5  0  0  0  0  0  0  0  0  0  0
    0.9599  -13.8713 -100.4422 N   0  0  0  0  0  0  0  0  0  0  0  0
    1.0635  -18.2690  -96.6565 O   0  0  0  0  0  0  0  0  0  0  0  0
    1.6535  -18.2069  -94.1476 O   0  0  0  0  0  0  0  0  0  0  0  0
    1.7298  -14.9891 -100.2340 C   0  0  1  0  0  0  0  0  0  0  0  0
    1.3115  -16.0490 -101.0539 C   0  0  2  0  0  0  0  0  0  0  0  0
    1.7677  -17.4702 -101.2743 C   0  0  0  0  0  0  0  0  0  0  0  0
    0.9433  -18.4556 -100.4390 C   0  0  0  0  0  0  0  0  0  0  0  0
    1.0438  -18.1091  -99.0633 O   0  0  0  0  0  0  0  0  0  0  0  0
  1 11  1  0  0  0  0
  3 13  1  1  0  0  0
  3 17  2  0  0  0  0
  3 20  1  0  0  0  0
  3 26  1  0  0  0  0
  4 14  1  1  0  0  0
  4 18  1  0  0  0  0
  4 21  2  0  0  0  0
  4 20  1  0  0  0  0
  5 19  1  0  0  0  0
  5  7  1  0  0  0  0
  6  7  2  0  0  0  0
  6 12  1  0  0  0  0
  7  8  1  0  0  0  0
  8  9  1  0  0  0  0
  8 10  2  0  0  0  0
 10 11  1  0  0  0  0
 11 12  2  0  0  0  0
 15 23  1  0  0  0  0
 15 16  1  0  0  0  0
 16 19  1  0  0  0  0
 19 22  1  0  0  0  0
 22  2  1  6  0  0  0
 22 23  1  0  0  0  0
 23 24  1  6  0  0  0
 24 25  1  0  0  0  0
 25 26  1  0  0  0  0
M  CHG  2  13  -1  18  -1
M  END
>  <CHROM.1>
56.48947369,79.50428281,-37.53637310,48.02619845,-84.31376821,-57.64047255
166.75499391,-87.08249834,0.25619415,-15.80813979,-98.16397554,1.90924873
1.29848856,-0.62707870

>  <Name>
ligand

>  <RI>
0

>  <Rbt.Current_Directory>
/home/itssahil/PROJECTS/Mol_Feturizer/New_Systems/rnas/2CKY

>  <Rbt.Executable>
rbdock ($Id: //depot/dev/client3/rdock/2013.1/src/exe/rbdock.cxx#4 $)

>  <Rbt.Library>
libRbt.so (2013.1, Build901 2013/11/27)

>  <Rbt.Parameter_File>
/export/apps/rDock/src/rDock_2013.1_src/data/scripts/dock_solv.prm

>  <Rbt.Receptor>
prm/pocket_docking_5.prm

>  <SCORE>
-16.0598

>  <SCORE.INTER>
-9.68045

>  <SCORE.INTER.CONST>
1

>  <SCORE.INTER.POLAR>
0

>  <SCORE.INTER.ROT>
8

>  <SCORE.INTER.SOLV>
9.24213

>  <SCORE.INTER.VDW>
-18.4677

>  <SCORE.INTER.norm>
-0.372325

>  <SCORE.INTRA>
-6.39783

>  <SCORE.INTRA.DIHEDRAL>
-9.3675

>  <SCORE.INTRA.DIHEDRAL.0>
16.4846

>  <SCORE.INTRA.POLAR>
0

>  <SCORE.INTRA.POLAR.0>
0

>  <SCORE.INTRA.REPUL>
0

>  <SCORE.INTRA.REPUL.0>
0

>  <SCORE.INTRA.SOLV>
0.207128

>  <SCORE.INTRA.SOLV.lig_0>
-82.6983

>  <SCORE.INTRA.VDW>
-1.81764

>  <SCORE.INTRA.VDW.0>
-2.11466

>  <SCORE.INTRA.norm>
-0.24607

>  <SCORE.RESTR>
0.0184394

>  <SCORE.RESTR.CAVITY>
0.0184394

>  <SCORE.RESTR.norm>
0.000709207

>  <SCORE.SYSTEM>
0

>  <SCORE.SYSTEM.CONST>
0

>  <SCORE.SYSTEM.DIHEDRAL>
0

>  <SCORE.SYSTEM.SOLV>
0

>  <SCORE.SYSTEM.norm>
0

>  <SCORE.heavy>
26

>  <SCORE.norm>
-0.617686

>  <RMSD>
8.428

$$$$
ligand
 OpenBabel11021811423D
libRbt.so/2013.1/901 2013/11/27
 26 27  0  0  0  0  0  0  0  0999 V2000
   -3.6670  -18.8001  -99.4643 C   0  0  0  0  0  0  0  0  0  0  0  0
   -0.0523  -13.2973  -97.7344 C   0  0  0  0  0  0  0  0  0  0  0  0
    0.4258  -15.8404  -94.5801 P   0  0  2  0  0  0  0  0  0  0  0  0
    3.0910  -16.2963  -93.9807 P   0  0  2  0  0  0  0  0  0  0  0  0
   -2.8397  -13.1333  -99.2024 C   0  0  0  0  0  0  0  0  0  0  0  0
   -4.0911  -15.2028  -98.6440 C   0  0  0  0  0  0  0  0  0  0  0  0
   -3.0001  -14.6256  -99.2809 C   0  0  0  0  0  0  0  0  0  0  0  0
   -2.1329  -15.4452 -100.0093 C   0  0  0  0  0  0  0  0  0  0  0  0
   -1.0629  -15.0035 -100.6709 N   0  0  0  0  0  0  0  0  0  0  0  0
   -2.3743  -16.7939 -100.0563 N   0  0  0  0  0  0  0  0  0  0  0  0
   -3.4453  -17.3357  -99.4031 C   0  0  0  0  0  0  0  0  0  0  0  0
   -4.3125  -16.5622  -98.7000 N   0  0  0  0  0  0  0  0  0  0  0  0
   -0.4883  -16.7996  -93.8435 O   0  5  0  0  0  0  0  0  0  0  0  0
    2.8229  -17.7844  -94.0040 O   0  0  0  0  0  0  0  0  0  0  0  0
   -2.8521  -11.5598  -95.6118 S   0  0  0  0  0  0  0  0  0  0  0  0
   -3.4294  -12.0109  -97.0676 C   0  0  0  0  0  0  0  0  0  0  0  0
    0.6649  -16.4498  -95.9590 O   0  0  0  0  0  0  0  0  0  0  0  0
    4.0765  -15.9195  -92.8933 O   0  5  0  0  0  0  0  0  0  0  0  0
   -2.5071  -12.6268  -97.8924 N   0  0  0  0  0  0  0  0  0  0  0  0
    1.7086  -15.5819  -93.6348 O   0  0  0  0  0  0  0  0  0  0  0  0
    3.6161  -15.8875  -95.3420 O   0  0  0  0  0  0  0  0  0  0  0  0
   -1.3059  -12.7000  -97.2311 C   0  0  1  0  0  0  0  0  0  0  0  0
   -1.4010  -12.1351  -95.9495 C   0  0  2  0  0  0  0  0  0  0  0  0
   -0.4486  -11.9465  -94.7946 C   0  0  0  0  0  0  0  0  0  0  0  0
    0.5343  -13.1172  -94.6864 C   0  0  0  0  0  0  0  0  0  0  0  0
   -0.1852  -14.3167  -94.4292 O   0  0  0  0  0  0  0  0  0  0  0  0
  1 11  1  0  0  0  0
  3 13  1  1  0  0  0
  3 17  2  0  0  0  0
  3 20  1  0  0  0  0
  3 26  1  0  0  0  0
  4 14  1  1  0  0  0
  4 18  1  0  0  0  0
  4 21  2  0  0  0  0
  4 20  1  0  0  0  0
  5 19  1  0  0  0  0
  5  7  1  0  0  0  0
  6  7  2  0  0  0  0
  6 12  1  0  0  0  0
  7  8  1  0  0  0  0
  8  9  1  0  0  0  0
  8 10  2  0  0  0  0
 10 11  1  0  0  0  0
 11 12  2  0  0  0  0
 15 23  1  0  0  0  0
 15 16  1  0  0  0  0
 16 19  1  0  0  0  0
 19 22  1  0  0  0  0
 22  2  1  1  0  0  0
 22 23  1  0  0  0  0
 23 24  1  1  0  0  0
 24 25  1  0  0  0  0
 25 26  1  0  0  0  0
M  CHG  2  13  -1  18  -1
M  END
>  <CHROM.1>
103.87906874,-103.18157970,68.88865593,-57.35085640,144.97512698,-62.38658562
165.27936348,163.62662830,-0.60046595,-14.91165556,-96.36396619,-2.99738239
-0.73026473,0.46138325

>  <Name>
ligand

>  <RI>
0

>  <Rbt.Current_Directory>
/home/itssahil/PROJECTS/Mol_Feturizer/New_Systems/rnas/2CKY

>  <Rbt.Executable>
rbdock ($Id: //depot/dev/client3/rdock/2013.1/src/exe/rbdock.cxx#4 $)

>  <Rbt.Library>
libRbt.so (2013.1, Build901 2013/11/27)

>  <Rbt.Parameter_File>
/export/apps/rDock/src/rDock_2013.1_src/data/scripts/dock_solv.prm

>  <Rbt.Receptor>
prm/pocket_docking_5.prm

>  <SCORE>
-17.7169

>  <SCORE.INTER>
-13.0952

>  <SCORE.INTER.CONST>
1

>  <SCORE.INTER.POLAR>
0

>  <SCORE.INTER.ROT>
8

>  <SCORE.INTER.SOLV>
9.25677

>  <SCORE.INTER.VDW>
-20.749

>  <SCORE.INTER.norm>
-0.503661

>  <SCORE.INTRA>
-4.62173

>  <SCORE.INTRA.DIHEDRAL>
-8.54647

>  <SCORE.INTRA.DIHEDRAL.0>
16.4846

>  <SCORE.INTRA.POLAR>
0

>  <SCORE.INTRA.POLAR.0>
0

>  <SCORE.INTRA.REPUL>
0

>  <SCORE.INTRA.REPUL.0>
0

>  <SCORE.INTRA.SOLV>
1.97805

>  <SCORE.INTRA.SOLV.lig_0>
-82.6983

>  <SCORE.INTRA.VDW>
-1.33752

>  <SCORE.INTRA.VDW.0>
-2.11466

>  <SCORE.INTRA.norm>
-0.177759

>  <SCORE.RESTR>
0

>  <SCORE.RESTR.CAVITY>
0

>  <SCORE.RESTR.norm>
0

>  <SCORE.SYSTEM>
0

>  <SCORE.SYSTEM.CONST>
0

>  <SCORE.SYSTEM.DIHEDRAL>
0

>  <SCORE.SYSTEM.SOLV>
0

>  <SCORE.SYSTEM.norm>
0

>  <SCORE.heavy>
26

>  <SCORE.norm>
-0.68142

>  <RMSD>
8.457

$$$$
ligand
 OpenBabel11021811423D
libRbt.so/2013.1/901 2013/11/27
 26 27  0  0  0  0  0  0  0  0999 V2000
   -2.4018  -11.5915  -98.0690 C   0  0  0  0  0  0  0  0  0  0  0  0
   -2.0525  -17.4759  -98.6888 C   0  0  0  0  0  0  0  0  0  0  0  0
    2.0002  -17.8328  -94.7177 P   0  0  2  0  0  0  0  0  0  0  0  0
    3.7294  -16.5688  -96.4733 P   0  0  2  0  0  0  0  0  0  0  0  0
   -0.6070  -16.0949 -101.1290 C   0  0  0  0  0  0  0  0  0  0  0  0
   -2.3860  -14.6698 -100.1467 C   0  0  0  0  0  0  0  0  0  0  0  0
   -1.0278  -14.8876 -100.3390 C   0  0  0  0  0  0  0  0  0  0  0  0
   -0.1137  -14.0109  -99.7474 C   0  0  0  0  0  0  0  0  0  0  0  0
    1.2106  -14.1265  -99.8511 N   0  0  0  0  0  0  0  0  0  0  0  0
   -0.5852  -12.9536  -99.0131 N   0  0  0  0  0  0  0  0  0  0  0  0
   -1.9280  -12.7538  -98.8578 C   0  0  0  0  0  0  0  0  0  0  0  0
   -2.8389  -13.5973  -99.4088 N   0  0  0  0  0  0  0  0  0  0  0  0
    1.3502  -16.4658  -94.6348 O   0  5  0  0  0  0  0  0  0  0  0  0
    2.8894  -17.0241  -97.6454 O   0  0  0  0  0  0  0  0  0  0  0  0
    1.4690  -18.9938  -99.4996 S   0  0  0  0  0  0  0  0  0  0  0  0
    1.1059  -17.7932 -100.5402 C   0  0  0  0  0  0  0  0  0  0  0  0
    1.8544  -18.4613  -93.3343 O   0  0  0  0  0  0  0  0  0  0  0  0
    5.2086  -16.5878  -96.8007 O   0  5  0  0  0  0  0  0  0  0  0  0
   -0.1263  -17.2014 -100.3365 N   0  0  0  0  0  0  0  0  0  0  0  0
    3.4914  -17.6184  -95.2974 O   0  0  0  0  0  0  0  0  0  0  0  0
    3.2863  -15.1725  -96.0861 O   0  0  0  0  0  0  0  0  0  0  0  0
   -0.7329  -17.8070  -99.2637 C   0  0  1  0  0  0  0  0  0  0  0  0
    0.0824  -18.8160  -98.7274 C   0  0  2  0  0  0  0  0  0  0  0  0
   -0.0359  -19.7810  -97.5735 C   0  0  0  0  0  0  0  0  0  0  0  0
    0.0879  -19.0581  -96.2280 C   0  0  0  0  0  0  0  0  0  0  0  0
    1.4249  -18.6044  -96.0561 O   0  0  0  0  0  0  0  0  0  0  0  0
  1 11  1  0  0  0  0
  3 13  1  1  0  0  0
  3 17  2  0  0  0  0
  3 20  1  0  0  0  0
  3 26  1  0  0  0  0
  4 14  1  6  0  0  0
  4 18  1  0  0  0  0
  4 21  2  0  0  0  0
  4 20  1  0  0  0  0
  5 19  1  0  0  0  0
  5  7  1  0  0  0  0
  6  7  2  0  0  0  0
  6 12  1  0  0  0  0
  7  8  1  0  0  0  0
  8  9  1  0  0  0  0
  8 10  2  0  0  0  0
 10 11  1  0  0  0  0
 11 12  2  0  0  0  0
 15 23  1  0  0  0  0
 15 16  1  0  0  0  0
 16 19  1  0  0  0  0
 19 22  1  0  0  0  0
 22  2  1  1  0  0  0
 22 23  1  0  0  0  0
 23 24  1  1  0  0  0
 24 25  1  0  0  0  0
 25 26  1  0  0  0  0
M  CHG  2  13  -1  18  -1
M  END
>  <CHROM.1>
-40.34641548,-125.52591277,-102.36000831,-59.97545950,108.40635414,-69.60710268
-177.38620060,-67.95785959,0.88237372,-16.59674434,-97.75473691,-2.81521788
0.86755793,-2.85311008

>  <Name>
ligand

>  <RI>
0

>  <Rbt.Current_Directory>
/home/itssahil/PROJECTS/Mol_Feturizer/New_Systems/rnas/2CKY

>  <Rbt.Executable>
rbdock ($Id: //depot/dev/client3/rdock/2013.1/src/exe/rbdock.cxx#4 $)

>  <Rbt.Library>
libRbt.so (2013.1, Build901 2013/11/27)

>  <Rbt.Parameter_File>
/export/apps/rDock/src/rDock_2013.1_src/data/scripts/dock_solv.prm

>  <Rbt.Receptor>
prm/pocket_docking_4.prm

>  <SCORE>
-19.6978

>  <SCORE.INTER>
-11.7592

>  <SCORE.INTER.CONST>
1

>  <SCORE.INTER.POLAR>
0

>  <SCORE.INTER.ROT>
8

>  <SCORE.INTER.SOLV>
13.7552

>  <SCORE.INTER.VDW>
-21.3578

>  <SCORE.INTER.norm>
-0.452276

>  <SCORE.INTRA>
-7.93865

>  <SCORE.INTRA.DIHEDRAL>
-11.0638

>  <SCORE.INTRA.DIHEDRAL.0>
16.4846

>  <SCORE.INTRA.POLAR>
0

>  <SCORE.INTRA.POLAR.0>
0

>  <SCORE.INTRA.REPUL>
0

>  <SCORE.INTRA.REPUL.0>
0

>  <SCORE.INTRA.SOLV>
0.564252

>  <SCORE.INTRA.SOLV.lig_0>
-82.6983

>  <SCORE.INTRA.VDW>
-2.6889

>  <SCORE.INTRA.VDW.0>
-2.11466

>  <SCORE.INTRA.norm>
-0.305333

>  <SCORE.RESTR>
0

>  <SCORE.RESTR.CAVITY>
0

>  <SCORE.RESTR.norm>
0

>  <SCORE.SYSTEM>
0

>  <SCORE.SYSTEM.CONST>
0

>  <SCORE.SYSTEM.DIHEDRAL>
0

>  <SCORE.SYSTEM.SOLV>
0

>  <SCORE.SYSTEM.norm>
0

>  <SCORE.heavy>
26

>  <SCORE.norm>
-0.757609

>  <RMSD>
8.469

$$$$
ligand
 OpenBabel11021811423D
libRbt.so/2013.1/901 2013/11/27
 26 27  0  0  0  0  0  0  0  0999 V2000
    1.8265  -17.5136 -101.3844 C   0  0  0  0  0  0  0  0  0  0  0  0
   -3.3036  -13.6702  -99.3136 C   0  0  0  0  0  0  0  0  0  0  0  0
    0.7673  -11.2794  -95.2607 P   0  0  2  0  0  0  0  0  0  0  0  0
    0.3575  -12.4311  -92.7755 P   0  0  2  0  0  0  0  0  0  0  0  0
   -2.9735  -16.6616  -98.3679 C   0  0  0  0  0  0  0  0  0  0  0  0
   -1.5248  -16.2928 -100.3492 C   0  0  0  0  0  0  0  0  0  0  0  0
   -1.7086  -16.9356  -99.1319 C   0  0  0  0  0  0  0  0  0  0  0  0
   -0.6919  -17.7627  -98.6455 C   0  0  0  0  0  0  0  0  0  0  0  0
   -0.7500  -18.4196  -97.4867 N   0  0  0  0  0  0  0  0  0  0  0  0
    0.4452  -17.9292  -99.3930 N   0  0  0  0  0  0  0  0  0  0  0  0
    0.5892  -17.2988 -100.5967 C   0  0  0  0  0  0  0  0  0  0  0  0
   -0.3755  -16.4781 -101.0873 N   0  0  0  0  0  0  0  0  0  0  0  0
    1.6282  -11.5449  -96.4799 O   0  5  0  0  0  0  0  0  0  0  0  0
   -1.0113  -11.8111  -92.9445 O   0  0  0  0  0  0  0  0  0  0  0  0
   -2.6712  -14.0458  -95.4636 S   0  0  0  0  0  0  0  0  0  0  0  0
   -2.7141  -15.5064  -96.1854 C   0  0  0  0  0  0  0  0  0  0  0  0
    1.1005   -9.8625  -94.8010 O   0  0  0  0  0  0  0  0  0  0  0  0
    1.2568  -11.5792  -91.9031 O   0  5  0  0  0  0  0  0  0  0  0  0
   -2.9421  -15.4739  -97.5482 N   0  0  0  0  0  0  0  0  0  0  0  0
    1.0212  -12.4902  -94.2237 O   0  0  0  0  0  0  0  0  0  0  0  0
    0.1825  -13.8110  -92.1747 O   0  0  0  0  0  0  0  0  0  0  0  0
   -3.0698  -14.1646  -97.9414 C   0  0  1  0  0  0  0  0  0  0  0  0
   -2.9287  -13.2943  -96.8491 C   0  0  2  0  0  0  0  0  0  0  0  0
   -2.9537  -11.7964  -96.6697 C   0  0  0  0  0  0  0  0  0  0  0  0
   -1.5400  -11.2065  -96.7134 C   0  0  0  0  0  0  0  0  0  0  0  0
   -0.7855  -11.7044  -95.6153 O   0  0  0  0  0  0  0  0  0  0  0  0
  1 11  1  0  0  0  0
  3 13  1  6  0  0  0
  3 17  2  0  0  0  0
  3 20  1  0  0  0  0
  3 26  1  0  0  0  0
  4 14  1  6  0  0  0
  4 18  1  0  0  0  0
  4 21  2  0  0  0  0
  4 20  1  0  0  0  0
  5 19  1  0  0  0  0
  5  7  1  0  0  0  0
  6  7  2  0  0  0  0
  6 12  1  0  0  0  0
  7  8  1  0  0  0  0
  8  9  1  0  0  0  0
  8 10  2  0  0  0  0
 10 11  1  0  0  0  0
 11 12  2  0  0  0  0
 15 23  1  0  0  0  0
 15 16  1  0  0  0  0
 16 19  1  0  0  0  0
 19 22  1  0  0  0  0
 22  2  1  6  0  0  0
 22 23  1  0  0  0  0
 23 24  1  6  0  0  0
 24 25  1  0  0  0  0
 25 26  1  0  0  0  0
M  CHG  2  13  -1  18  -1
M  END
>  <CHROM.1>
174.33426625,-99.77944692,-83.92490768,37.21012815,84.96397635,-63.98282950
-177.74045121,-55.38661446,-0.76250604,-13.93322792,-96.46758350,-1.71671279
-0.09962911,0.83158102

>  <Name>
ligand

>  <RI>
0

>  <Rbt.Current_Directory>
/home/itssahil/PROJECTS/Mol_Feturizer/New_Systems/rnas/2CKY

>  <Rbt.Executable>
rbdock ($Id: //depot/dev/client3/rdock/2013.1/src/exe/rbdock.cxx#4 $)

>  <Rbt.Library>
libRbt.so (2013.1, Build901 2013/11/27)

>  <Rbt.Parameter_File>
/export/apps/rDock/src/rDock_2013.1_src/data/scripts/dock_solv.prm

>  <Rbt.Receptor>
prm/pocket_docking_6.prm

>  <SCORE>
-17.2367

>  <SCORE.INTER>
-9.32779

>  <SCORE.INTER.CONST>
1

>  <SCORE.INTER.POLAR>
0

>  <SCORE.INTER.ROT>
8

>  <SCORE.INTER.SOLV>
7.62501

>  <SCORE.INTER.VDW>
-17.6935

>  <SCORE.INTER.norm>
-0.358761

>  <SCORE.INTRA>
-7.91875

>  <SCORE.INTRA.DIHEDRAL>
-10.5907

>  <SCORE.INTRA.DIHEDRAL.0>
16.4846

>  <SCORE.INTRA.POLAR>
0

>  <SCORE.INTRA.POLAR.0>
0

>  <SCORE.INTRA.REPUL>
0

>  <SCORE.INTRA.REPUL.0>
0

>  <SCORE.INTRA.SOLV>
-0.940052

>  <SCORE.INTRA.SOLV.lig_0>
-82.6983

>  <SCORE.INTRA.VDW>
-2.15337

>  <SCORE.INTRA.VDW.0>
-2.11466

>  <SCORE.INTRA.norm>
-0.304567

>  <SCORE.RESTR>
0.00987127

>  <SCORE.RESTR.CAVITY>
0.00987127

>  <SCORE.RESTR.norm>
0.000379664

>  <SCORE.SYSTEM>
0

>  <SCORE.SYSTEM.CONST>
0

>  <SCORE.SYSTEM.DIHEDRAL>
0

>  <SCORE.SYSTEM.SOLV>
0

>  <SCORE.SYSTEM.norm>
0

>  <SCORE.heavy>
26

>  <SCORE.norm>
-0.662949

>  <RMSD>
8.474

$$$$
ligand
 OpenBabel11021811423D
libRbt.so/2013.1/901 2013/11/27
 26 27  0  0  0  0  0  0  0  0999 V2000
   -3.7678  -21.2194 -101.8038 C   0  0  0  0  0  0  0  0  0  0  0  0
   -2.6142  -14.8965  -95.8411 C   0  0  0  0  0  0  0  0  0  0  0  0
   -0.6859  -11.5223  -94.9294 P   0  0  2  0  0  0  0  0  0  0  0  0
    1.9773  -12.0320  -95.4935 P   0  0  2  0  0  0  0  0  0  0  0  0
   -2.4077  -17.3962  -97.7542 C   0  0  0  0  0  0  0  0  0  0  0  0
   -4.0353  -18.7874  -99.0097 C   0  0  0  0  0  0  0  0  0  0  0  0
   -2.7106  -18.4195  -98.8125 C   0  0  0  0  0  0  0  0  0  0  0  0
   -1.7270  -18.9720  -99.6380 C   0  0  0  0  0  0  0  0  0  0  0  0
   -0.4278  -18.6851  -99.5513 N   0  0  0  0  0  0  0  0  0  0  0  0
   -2.0970  -19.8734 -100.6024 N   0  0  0  0  0  0  0  0  0  0  0  0
   -3.4064  -20.2309 -100.7598 C   0  0  0  0  0  0  0  0  0  0  0  0
   -4.3850  -19.6995  -99.9822 N   0  0  0  0  0  0  0  0  0  0  0  0
   -0.5501  -10.0199  -95.0783 O   0  5  0  0  0  0  0  0  0  0  0  0
    2.1411  -12.5417  -94.0792 O   0  0  0  0  0  0  0  0  0  0  0  0
   -3.3807  -14.0753  -99.5962 S   0  0  0  0  0  0  0  0  0  0  0  0
   -3.0123  -15.6525  -99.4152 C   0  0  0  0  0  0  0  0  0  0  0  0
   -0.6324  -11.8111  -93.4315 O   0  0  0  0  0  0  0  0  0  0  0  0
    2.3094  -10.5577  -95.6019 O   0  5  0  0  0  0  0  0  0  0  0  0
   -2.7172  -16.0348  -98.1202 N   0  0  0  0  0  0  0  0  0  0  0  0
    0.4375  -12.1992  -95.8706 O   0  0  0  0  0  0  0  0  0  0  0  0
    2.8754  -12.8496  -96.3994 O   0  0  0  0  0  0  0  0  0  0  0  0
   -2.8252  -14.9370  -97.3024 C   0  0  1  0  0  0  0  0  0  0  0  0
   -3.1959  -13.7980  -98.0343 C   0  0  2  0  0  0  0  0  0  0  0  0
   -3.4741  -12.3551  -97.6919 C   0  0  0  0  0  0  0  0  0  0  0  0
   -2.2112  -11.6491  -97.1869 C   0  0  0  0  0  0  0  0  0  0  0  0
   -1.9680  -12.0233  -95.8365 O   0  0  0  0  0  0  0  0  0  0  0  0
  1 11  1  0  0  0  0
  3 13  1  6  0  0  0
  3 17  2  0  0  0  0
  3 20  1  0  0  0  0
  3 26  1  0  0  0  0
  4 14  1  1  0  0  0
  4 18  1  0  0  0  0
  4 21  2  0  0  0  0
  4 20  1  0  0  0  0
  5 19  1  0  0  0  0
  5  7  1  0  0  0  0
  6  7  2  0  0  0  0
  6 12  1  0  0  0  0
  7  8  1  0  0  0  0
  8  9  1  0  0  0  0
  8 10  2  0  0  0  0
 10 11  1  0  0  0  0
 11 12  2  0  0  0  0
 15 23  1  0  0  0  0
 15 16  1  0  0  0  0
 16 19  1  0  0  0  0
 19 22  1  0  0  0  0
 22  2  1  1  0  0  0
 22 23  1  0  0  0  0
 23 24  1  1  0  0  0
 24 25  1  0  0  0  0
 25 26  1  0  0  0  0
M  CHG  2  13  -1  18  -1
M  END
>  <CHROM.1>
67.96581312,-12.43405784,-76.30160106,55.60922926,-114.86347871,-77.60402300
178.19315138,47.79483091,-1.41079212,-14.60347403,-97.37864523,-1.98568792
-0.30428735,0.44543613

>  <Name>
ligand

>  <RI>
0

>  <Rbt.Current_Directory>
/home/itssahil/PROJECTS/Mol_Feturizer/New_Systems/rnas/2CKY

>  <Rbt.Executable>
rbdock ($Id: //depot/dev/client3/rdock/2013.1/src/exe/rbdock.cxx#4 $)

>  <Rbt.Library>
libRbt.so (2013.1, Build901 2013/11/27)

>  <Rbt.Parameter_File>
/export/apps/rDock/src/rDock_2013.1_src/data/scripts/dock_solv.prm

>  <Rbt.Receptor>
prm/pocket_docking_8.prm

>  <SCORE>
-20.7098

>  <SCORE.INTER>
-14.5889

>  <SCORE.INTER.CONST>
1

>  <SCORE.INTER.POLAR>
0

>  <SCORE.INTER.ROT>
8

>  <SCORE.INTER.SOLV>
10.1403

>  <SCORE.INTER.VDW>
-22.0394

>  <SCORE.INTER.norm>
-0.561113

>  <SCORE.INTRA>
-6.12089

>  <SCORE.INTRA.DIHEDRAL>
-10.5951

>  <SCORE.INTRA.DIHEDRAL.0>
16.4846

>  <SCORE.INTRA.POLAR>
0

>  <SCORE.INTRA.POLAR.0>
0

>  <SCORE.INTRA.REPUL>
0

>  <SCORE.INTRA.REPUL.0>
0

>  <SCORE.INTRA.SOLV>
0.787628

>  <SCORE.INTRA.SOLV.lig_0>
-82.6983

>  <SCORE.INTRA.VDW>
-1.21715

>  <SCORE.INTRA.VDW.0>
-2.11466

>  <SCORE.INTRA.norm>
-0.235419

>  <SCORE.RESTR>
0

>  <SCORE.RESTR.CAVITY>
0

>  <SCORE.RESTR.norm>
0

>  <SCORE.SYSTEM>
0

>  <SCORE.SYSTEM.CONST>
0

>  <SCORE.SYSTEM.DIHEDRAL>
0

>  <SCORE.SYSTEM.SOLV>
0

>  <SCORE.SYSTEM.norm>
0

>  <SCORE.heavy>
26

>  <SCORE.norm>
-0.796532

>  <RMSD>
8.495

$$$$
ligand
 OpenBabel11021811423D
libRbt.so/2013.1/901 2013/11/27
 26 27  0  0  0  0  0  0  0  0999 V2000
   -3.0290  -20.3213 -100.2507 C   0  0  0  0  0  0  0  0  0  0  0  0
   -2.4139  -11.8103  -98.1588 C   0  0  0  0  0  0  0  0  0  0  0  0
    1.3726  -13.2988  -94.2141 P   0  0  2  0  0  0  0  0  0  0  0  0
    2.7732  -15.6683  -94.5213 P   0  0  2  0  0  0  0  0  0  0  0  0
   -3.0976  -14.6665  -99.3103 C   0  0  0  0  0  0  0  0  0  0  0  0
   -4.1092  -16.9298  -99.1901 C   0  0  0  0  0  0  0  0  0  0  0  0
   -3.0219  -16.1472  -99.5566 C   0  0  0  0  0  0  0  0  0  0  0  0
   -1.9325  -16.7577 -100.1848 C   0  0  0  0  0  0  0  0  0  0  0  0
   -0.8416  -16.1081 -100.5921 N   0  0  0  0  0  0  0  0  0  0  0  0
   -1.9621  -18.1109 -100.4020 N   0  0  0  0  0  0  0  0  0  0  0  0
   -3.0379  -18.8581 -100.0125 C   0  0  0  0  0  0  0  0  0  0  0  0
   -4.1163  -18.2901  -99.4133 N   0  0  0  0  0  0  0  0  0  0  0  0
    2.1428  -12.6084  -95.3224 O   0  5  0  0  0  0  0  0  0  0  0  0
    3.6773  -14.9852  -95.5226 O   0  0  0  0  0  0  0  0  0  0  0  0
   -3.0086  -14.5238  -95.3936 S   0  0  0  0  0  0  0  0  0  0  0  0
   -3.1965  -15.1653  -96.8800 C   0  0  0  0  0  0  0  0  0  0  0  0
    1.9965  -12.8301  -92.9023 O   0  0  0  0  0  0  0  0  0  0  0  0
    2.4799  -17.1018  -94.9148 O   0  5  0  0  0  0  0  0  0  0  0  0
   -3.0141  -14.2770  -97.9230 N   0  0  0  0  0  0  0  0  0  0  0  0
    1.3873  -14.8806  -94.5358 O   0  0  0  0  0  0  0  0  0  0  0  0
    3.4427  -15.6139  -93.1631 O   0  0  0  0  0  0  0  0  0  0  0  0
   -2.7051  -13.0447  -97.4019 C   0  0  1  0  0  0  0  0  0  0  0  0
   -2.6735  -13.0843  -95.9991 C   0  0  2  0  0  0  0  0  0  0  0  0
   -2.3860  -12.0797  -94.9107 C   0  0  0  0  0  0  0  0  0  0  0  0
   -0.8794  -11.8544  -94.7445 C   0  0  0  0  0  0  0  0  0  0  0  0
   -0.2394  -13.1001  -94.4962 O   0  0  0  0  0  0  0  0  0  0  0  0
  1 11  1  0  0  0  0
  3 13  1  6  0  0  0
  3 17  2  0  0  0  0
  3 20  1  0  0  0  0
  3 26  1  0  0  0  0
  4 14  1  6  0  0  0
  4 18  1  0  0  0  0
  4 21  2  0  0  0  0
  4 20  1  0  0  0  0
  5 19  1  0  0  0  0
  5  7  1  0  0  0  0
  6  7  2  0  0  0  0
  6 12  1  0  0  0  0
  7  8  1  0  0  0  0
  8  9  1  0  0  0  0
  8 10  2  0  0  0  0
 10 11  1  0  0  0  0
 11 12  2  0  0  0  0
 15 23  1  0  0  0  0
 15 16  1  0  0  0  0
 16 19  1  0  0  0  0
 19 22  1  0  0  0  0
 22  2  1  6  0  0  0
 22 23  1  0  0  0  0
 23 24  1  6  0  0  0
 24 25  1  0  0  0  0
 25 26  1  0  0  0  0
M  CHG  2  13  -1  18  -1
M  END
>  <CHROM.1>
64.75051099,-15.98350938,71.41214998,-57.53192719,100.93533308,-55.91852757
-178.07720662,-51.75412054,-0.68958996,-14.97106781,-96.52283196,-2.37493621
-0.50383246,0.58587534

>  <Name>
ligand

>  <RI>
0

>  <Rbt.Current_Directory>
/home/itssahil/PROJECTS/Mol_Feturizer/New_Systems/rnas/2CKY

>  <Rbt.Executable>
rbdock ($Id: //depot/dev/client3/rdock/2013.1/src/exe/rbdock.cxx#4 $)

>  <Rbt.Library>
libRbt.so (2013.1, Build901 2013/11/27)

>  <Rbt.Parameter_File>
/export/apps/rDock/src/rDock_2013.1_src/data/scripts/dock_solv.prm

>  <Rbt.Receptor>
prm/pocket_docking_7.prm

>  <SCORE>
-20.0822

>  <SCORE.INTER>
-13.0646

>  <SCORE.INTER.CONST>
1

>  <SCORE.INTER.POLAR>
0

>  <SCORE.INTER.ROT>
8

>  <SCORE.INTER.SOLV>
7.40308

>  <SCORE.INTER.VDW>
-20.1108

>  <SCORE.INTER.norm>
-0.502485

>  <SCORE.INTRA>
-7.01762

>  <SCORE.INTRA.DIHEDRAL>
-11.293

>  <SCORE.INTRA.DIHEDRAL.0>
16.4846

>  <SCORE.INTRA.POLAR>
0

>  <SCORE.INTRA.POLAR.0>
0

>  <SCORE.INTRA.REPUL>
0

>  <SCORE.INTRA.REPUL.0>
0

>  <SCORE.INTRA.SOLV>
0.15568

>  <SCORE.INTRA.SOLV.lig_0>
-82.6983

>  <SCORE.INTRA.VDW>
-1.44896

>  <SCORE.INTRA.VDW.0>
-2.11466

>  <SCORE.INTRA.norm>
-0.269908

>  <SCORE.RESTR>
0

>  <SCORE.RESTR.CAVITY>
0

>  <SCORE.RESTR.norm>
0

>  <SCORE.SYSTEM>
0

>  <SCORE.SYSTEM.CONST>
0

>  <SCORE.SYSTEM.DIHEDRAL>
0

>  <SCORE.SYSTEM.SOLV>
0

>  <SCORE.SYSTEM.norm>
0

>  <SCORE.heavy>
26

>  <SCORE.norm>
-0.772393

>  <RMSD>
8.501

$$$$
ligand
 OpenBabel11021811423D
libRbt.so/2013.1/901 2013/11/27
 26 27  0  0  0  0  0  0  0  0999 V2000
    1.9534  -18.4311 -101.2765 C   0  0  0  0  0  0  0  0  0  0  0  0
   -3.8498  -13.6610  -98.3803 C   0  0  0  0  0  0  0  0  0  0  0  0
    0.1893  -10.7187  -96.4731 P   0  0  2  0  0  0  0  0  0  0  0  0
    0.4505   -8.2434  -95.2586 P   0  0  2  0  0  0  0  0  0  0  0  0
   -2.9850  -16.6336  -98.9860 C   0  0  0  0  0  0  0  0  0  0  0  0
   -0.9134  -16.2786 -100.3061 C   0  0  0  0  0  0  0  0  0  0  0  0
   -1.7112  -17.1587  -99.5864 C   0  0  0  0  0  0  0  0  0  0  0  0
   -1.2721  -18.4735  -99.4056 C   0  0  0  0  0  0  0  0  0  0  0  0
   -1.9448  -19.4014  -98.7241 N   0  0  0  0  0  0  0  0  0  0  0  0
   -0.0788  -18.8587  -99.9598 N   0  0  0  0  0  0  0  0  0  0  0  0
    0.6753  -17.9753 -100.6796 C   0  0  0  0  0  0  0  0  0  0  0  0
    0.2809  -16.6882 -100.8593 N   0  0  0  0  0  0  0  0  0  0  0  0
    1.5887  -11.1330  -96.0633 O   0  5  0  0  0  0  0  0  0  0  0  0
   -0.2975   -7.4236  -94.2314 O   0  0  0  0  0  0  0  0  0  0  0  0
   -2.0706  -15.4299  -95.3689 S   0  0  0  0  0  0  0  0  0  0  0  0
   -2.1941  -16.4422  -96.6402 C   0  0  0  0  0  0  0  0  0  0  0  0
    0.2804  -10.2884  -97.9348 O   0  0  0  0  0  0  0  0  0  0  0  0
    0.4361   -7.5844  -96.6228 O   0  5  0  0  0  0  0  0  0  0  0  0
   -2.8188  -15.9062  -97.7504 N   0  0  0  0  0  0  0  0  0  0  0  0
   -0.3219   -9.6312  -95.3952 O   0  0  0  0  0  0  0  0  0  0  0  0
    1.8729   -8.4311  -94.7714 O   0  0  0  0  0  0  0  0  0  0  0  0
   -3.1752  -14.6098  -97.4713 C   0  0  1  0  0  0  0  0  0  0  0  0
   -2.7950  -14.2521  -96.1682 C   0  0  2  0  0  0  0  0  0  0  0  0
   -2.9006  -13.0000  -95.3330 C   0  0  0  0  0  0  0  0  0  0  0  0
   -2.2802  -11.7972  -96.0516 C   0  0  0  0  0  0  0  0  0  0  0  0
   -0.8623  -11.9004  -96.0091 O   0  0  0  0  0  0  0  0  0  0  0  0
  1 11  1  0  0  0  0
  3 13  1  1  0  0  0
  3 17  2  0  0  0  0
  3 20  1  0  0  0  0
  3 26  1  0  0  0  0
  4 14  1  1  0  0  0
  4 18  1  0  0  0  0
  4 21  2  0  0  0  0
  4 20  1  0  0  0  0
  5 19  1  0  0  0  0
  5  7  1  0  0  0  0
  6  7  2  0  0  0  0
  6 12  1  0  0  0  0
  7  8  1  0  0  0  0
  8  9  1  0  0  0  0
  8 10  2  0  0  0  0
 10 11  1  0  0  0  0
 11 12  2  0  0  0  0
 15 23  1  0  0  0  0
 15 16  1  0  0  0  0
 16 19  1  0  0  0  0
 19 22  1  0  0  0  0
 22  2  1  6  0  0  0
 22 23  1  0  0  0  0
 23 24  1  6  0  0  0
 24 25  1  0  0  0  0
 25 26  1  0  0  0  0
M  CHG  2  13  -1  18  -1
M  END
>  <CHROM.1>
63.02716645,-55.92956456,-79.86963697,177.24162059,124.96665692,-74.52952698
-170.89871864,170.88558024,-0.82992381,-13.35030012,-97.21877402,-1.73627055
0.57602729,0.50894728

>  <Name>
ligand

>  <RI>
0

>  <Rbt.Current_Directory>
/home/itssahil/PROJECTS/Mol_Feturizer/New_Systems/rnas/2CKY

>  <Rbt.Executable>
rbdock ($Id: //depot/dev/client3/rdock/2013.1/src/exe/rbdock.cxx#4 $)

>  <Rbt.Library>
libRbt.so (2013.1, Build901 2013/11/27)

>  <Rbt.Parameter_File>
/export/apps/rDock/src/rDock_2013.1_src/data/scripts/dock_solv.prm

>  <Rbt.Receptor>
prm/pocket_docking_8.prm

>  <SCORE>
-16.3694

>  <SCORE.INTER>
-10.5248

>  <SCORE.INTER.CONST>
1

>  <SCORE.INTER.POLAR>
0

>  <SCORE.INTER.ROT>
8

>  <SCORE.INTER.SOLV>
6.65505

>  <SCORE.INTER.VDW>
-18.1682

>  <SCORE.INTER.norm>
-0.4048

>  <SCORE.INTRA>
-5.84459

>  <SCORE.INTRA.DIHEDRAL>
-10.7246

>  <SCORE.INTRA.DIHEDRAL.0>
16.4846

>  <SCORE.INTRA.POLAR>
0

>  <SCORE.INTRA.POLAR.0>
0

>  <SCORE.INTRA.REPUL>
0

>  <SCORE.INTRA.REPUL.0>
0

>  <SCORE.INTRA.SOLV>
2.1554

>  <SCORE.INTRA.SOLV.lig_0>
-82.6983

>  <SCORE.INTRA.VDW>
-1.56001

>  <SCORE.INTRA.VDW.0>
-2.11466

>  <SCORE.INTRA.norm>
-0.224792

>  <SCORE.RESTR>
0

>  <SCORE.RESTR.CAVITY>
0

>  <SCORE.RESTR.norm>
0

>  <SCORE.SYSTEM>
0

>  <SCORE.SYSTEM.CONST>
0

>  <SCORE.SYSTEM.DIHEDRAL>
0

>  <SCORE.SYSTEM.SOLV>
0

>  <SCORE.SYSTEM.norm>
0

>  <SCORE.heavy>
26

>  <SCORE.norm>
-0.629592

>  <RMSD>
8.534

$$$$
ligand
 OpenBabel11021811423D
libRbt.so/2013.1/901 2013/11/27
 26 27  0  0  0  0  0  0  0  0999 V2000
    4.1063  -10.7506 -100.1564 C   0  0  0  0  0  0  0  0  0  0  0  0
    0.0992  -13.1448  -94.4460 C   0  0  0  0  0  0  0  0  0  0  0  0
   -0.3028  -16.9481  -96.4818 P   0  0  2  0  0  0  0  0  0  0  0  0
   -1.2632  -19.4169  -97.2900 P   0  0  2  0  0  0  0  0  0  0  0  0
    0.5981  -10.2711  -95.6478 C   0  0  0  0  0  0  0  0  0  0  0  0
    1.0616  -10.7910  -98.0301 C   0  0  0  0  0  0  0  0  0  0  0  0
    1.5618  -10.4049  -96.7933 C   0  0  0  0  0  0  0  0  0  0  0  0
    2.9226  -10.1058  -96.6796 C   0  0  0  0  0  0  0  0  0  0  0  0
    3.5118   -9.7132  -95.5497 N   0  0  0  0  0  0  0  0  0  0  0  0
    3.7241  -10.2215  -97.7857 N   0  0  0  0  0  0  0  0  0  0  0  0
    3.2068  -10.6229  -98.9851 C   0  0  0  0  0  0  0  0  0  0  0  0
    1.8862  -10.9059  -99.1286 N   0  0  0  0  0  0  0  0  0  0  0  0
    0.0910  -16.4875  -97.8713 O   0  5  0  0  0  0  0  0  0  0  0  0
   -0.3070  -20.1369  -96.3661 O   0  0  0  0  0  0  0  0  0  0  0  0
   -2.9236  -11.7566  -96.5193 S   0  0  0  0  0  0  0  0  0  0  0  0
   -1.7059  -10.6741  -96.4812 C   0  0  0  0  0  0  0  0  0  0  0  0
    0.9749  -17.4591  -95.8214 O   0  0  0  0  0  0  0  0  0  0  0  0
   -0.6590  -19.1933  -98.6614 O   0  5  0  0  0  0  0  0  0  0  0  0
   -0.5956  -11.0745  -95.7620 N   0  0  0  0  0  0  0  0  0  0  0  0
   -1.5316  -17.9812  -96.6514 O   0  0  0  0  0  0  0  0  0  0  0  0
   -2.5322  -20.2383  -97.3933 O   0  0  0  0  0  0  0  0  0  0  0  0
   -0.8274  -12.3310  -95.2589 C   0  0  1  0  0  0  0  0  0  0  0  0
   -2.0977  -12.7969  -95.6325 C   0  0  2  0  0  0  0  0  0  0  0  0
   -2.8775  -14.0677  -95.4007 C   0  0  0  0  0  0  0  0  0  0  0  0
   -2.3868  -15.1966  -96.3135 C   0  0  0  0  0  0  0  0  0  0  0  0
   -1.1984  -15.7600  -95.7719 O   0  0  0  0  0  0  0  0  0  0  0  0
  1 11  1  0  0  0  0
  3 13  1  6  0  0  0
  3 17  2  0  0  0  0
  3 20  1  0  0  0  0
  3 26  1  0  0  0  0
  4 14  1  1  0  0  0
  4 18  1  0  0  0  0
  4 21  2  0  0  0  0
  4 20  1  0  0  0  0
  5 19  1  0  0  0  0
  5  7  1  0  0  0  0
  6  7  2  0  0  0  0
  6 12  1  0  0  0  0
  7  8  1  0  0  0  0
  8  9  1  0  0  0  0
  8 10  2  0  0  0  0
 10 11  1  0  0  0  0
 11 12  2  0  0  0  0
 15 23  1  0  0  0  0
 15 16  1  0  0  0  0
 16 19  1  0  0  0  0
 19 22  1  0  0  0  0
 22  2  1  6  0  0  0
 22 23  1  0  0  0  0
 23 24  1  6  0  0  0
 24 25  1  0  0  0  0
 25 26  1  0  0  0  0
M  CHG  2  13  -1  18  -1
M  END
>  <CHROM.1>
70.17091623,-83.62404167,25.50179847,62.63793916,102.08862163,79.46731498
-176.69794493,55.92669413,-0.13896190,-14.28259689,-96.80304232,-1.19786595
-0.46658598,-2.99583855

>  <Name>
ligand

>  <RI>
0

>  <Rbt.Current_Directory>
/home/itssahil/PROJECTS/Mol_Feturizer/New_Systems/rnas/2CKY

>  <Rbt.Executable>
rbdock ($Id: //depot/dev/client3/rdock/2013.1/src/exe/rbdock.cxx#4 $)

>  <Rbt.Library>
libRbt.so (2013.1, Build901 2013/11/27)

>  <Rbt.Parameter_File>
/export/apps/rDock/src/rDock_2013.1_src/data/scripts/dock_solv.prm

>  <Rbt.Receptor>
prm/pocket_docking_7.prm

>  <SCORE>
-15.7749

>  <SCORE.INTER>
-9.26735

>  <SCORE.INTER.CONST>
1

>  <SCORE.INTER.POLAR>
0

>  <SCORE.INTER.ROT>
8

>  <SCORE.INTER.SOLV>
5.90646

>  <SCORE.INTER.VDW>
-17.0804

>  <SCORE.INTER.norm>
-0.356437

>  <SCORE.INTRA>
-6.50756

>  <SCORE.INTRA.DIHEDRAL>
-10.5017

>  <SCORE.INTRA.DIHEDRAL.0>
16.4846

>  <SCORE.INTRA.POLAR>
0

>  <SCORE.INTRA.POLAR.0>
0

>  <SCORE.INTRA.REPUL>
0

>  <SCORE.INTRA.REPUL.0>
0

>  <SCORE.INTRA.SOLV>
0.582928

>  <SCORE.INTRA.SOLV.lig_0>
-82.6983

>  <SCORE.INTRA.VDW>
-1.54819

>  <SCORE.INTRA.VDW.0>
-2.11466

>  <SCORE.INTRA.norm>
-0.250291

>  <SCORE.RESTR>
0

>  <SCORE.RESTR.CAVITY>
0

>  <SCORE.RESTR.norm>
0

>  <SCORE.SYSTEM>
0

>  <SCORE.SYSTEM.CONST>
0

>  <SCORE.SYSTEM.DIHEDRAL>
0

>  <SCORE.SYSTEM.SOLV>
0

>  <SCORE.SYSTEM.norm>
0

>  <SCORE.heavy>
26

>  <SCORE.norm>
-0.606727

>  <RMSD>
8.544

$$$$
ligand
 OpenBabel11021811423D
libRbt.so/2013.1/901 2013/11/27
 26 27  0  0  0  0  0  0  0  0999 V2000
    4.1052  -10.8573 -100.3167 C   0  0  0  0  0  0  0  0  0  0  0  0
   -1.1808  -12.7512  -95.4308 C   0  0  0  0  0  0  0  0  0  0  0  0
   -0.2588  -17.1283  -98.2595 P   0  0  2  0  0  0  0  0  0  0  0  0
    0.2017  -15.1051 -100.0940 P   0  0  2  0  0  0  0  0  0  0  0  0
   -0.8768  -10.4044  -97.5168 C   0  0  0  0  0  0  0  0  0  0  0  0
    0.5126  -11.1661  -99.4272 C   0  0  0  0  0  0  0  0  0  0  0  0
    0.4568  -10.5173  -98.2004 C   0  0  0  0  0  0  0  0  0  0  0  0
    1.6259   -9.9525  -97.6823 C   0  0  0  0  0  0  0  0  0  0  0  0
    1.6915   -9.2961  -96.5236 N   0  0  0  0  0  0  0  0  0  0  0  0
    2.7937  -10.0730  -98.3903 N   0  0  0  0  0  0  0  0  0  0  0  0
    2.8215  -10.7343  -99.5857 C   0  0  0  0  0  0  0  0  0  0  0  0
    1.6986  -11.2803 -100.1203 N   0  0  0  0  0  0  0  0  0  0  0  0
    1.1704  -16.8245  -97.8557 O   0  5  0  0  0  0  0  0  0  0  0  0
   -0.3649  -14.6732 -101.4278 O   0  0  0  0  0  0  0  0  0  0  0  0
   -3.3304  -13.2351  -98.6724 S   0  0  0  0  0  0  0  0  0  0  0  0
   -2.4993  -11.8346  -98.7362 C   0  0  0  0  0  0  0  0  0  0  0  0
   -0.4400  -18.6348  -98.0939 O   0  0  0  0  0  0  0  0  0  0  0  0
    1.6955  -15.3469 -100.1694 O   0  5  0  0  0  0  0  0  0  0  0  0
   -1.7165  -11.5732  -97.6276 N   0  0  0  0  0  0  0  0  0  0  0  0
   -0.4849  -16.4963  -99.7277 O   0  0  0  0  0  0  0  0  0  0  0  0
   -0.1142  -14.0303  -99.0738 O   0  0  0  0  0  0  0  0  0  0  0  0
   -1.8525  -12.6110  -96.7387 C   0  0  1  0  0  0  0  0  0  0  0  0
   -2.7288  -13.5885  -97.2357 C   0  0  2  0  0  0  0  0  0  0  0  0
   -3.2389  -14.9168  -96.7339 C   0  0  0  0  0  0  0  0  0  0  0  0
   -2.6771  -16.0779  -97.5613 C   0  0  0  0  0  0  0  0  0  0  0  0
   -1.2570  -16.0713  -97.4823 O   0  0  0  0  0  0  0  0  0  0  0  0
  1 11  1  0  0  0  0
  3 13  1  1  0  0  0
  3 17  2  0  0  0  0
  3 20  1  0  0  0  0
  3 26  1  0  0  0  0
  4 14  1  6  0  0  0
  4 18  1  0  0  0  0
  4 21  2  0  0  0  0
  4 20  1  0  0  0  0
  5 19  1  0  0  0  0
  5  7  1  0  0  0  0
  6  7  2  0  0  0  0
  6 12  1  0  0  0  0
  7  8  1  0  0  0  0
  8  9  1  0  0  0  0
  8 10  2  0  0  0  0
 10 11  1  0  0  0  0
 11 12  2  0  0  0  0
 15 23  1  0  0  0  0
 15 16  1  0  0  0  0
 16 19  1  0  0  0  0
 19 22  1  0  0  0  0
 22  2  1  6  0  0  0
 22 23  1  0  0  0  0
 23 24  1  6  0  0  0
 24 25  1  0  0  0  0
 25 26  1  0  0  0  0
M  CHG  2  13  -1  18  -1
M  END
>  <CHROM.1>
-37.00655248,-82.04854965,39.00912825,-171.15437054,68.81662019,59.64279405
-178.31332383,-177.14083628,-0.27252739,-13.64869203,-98.51119354,-1.11654448
-0.48914624,-2.93502021

>  <Name>
ligand

>  <RI>
0

>  <Rbt.Current_Directory>
/home/itssahil/PROJECTS/Mol_Feturizer/New_Systems/rnas/2CKY

>  <Rbt.Executable>
rbdock ($Id: //depot/dev/client3/rdock/2013.1/src/exe/rbdock.cxx#4 $)

>  <Rbt.Library>
libRbt.so (2013.1, Build901 2013/11/27)

>  <Rbt.Parameter_File>
/export/apps/rDock/src/rDock_2013.1_src/data/scripts/dock_solv.prm

>  <Rbt.Receptor>
prm/pocket_docking_6.prm

>  <SCORE>
-14.7659

>  <SCORE.INTER>
-8.03732

>  <SCORE.INTER.CONST>
1

>  <SCORE.INTER.POLAR>
0

>  <SCORE.INTER.ROT>
8

>  <SCORE.INTER.SOLV>
3.61583

>  <SCORE.INTER.VDW>
-15.4968

>  <SCORE.INTER.norm>
-0.309128

>  <SCORE.INTRA>
-6.72859

>  <SCORE.INTRA.DIHEDRAL>
-10.7006

>  <SCORE.INTRA.DIHEDRAL.0>
16.4846

>  <SCORE.INTRA.POLAR>
0

>  <SCORE.INTRA.POLAR.0>
0

>  <SCORE.INTRA.REPUL>
0

>  <SCORE.INTRA.REPUL.0>
0

>  <SCORE.INTRA.SOLV>
4.66866

>  <SCORE.INTRA.SOLV.lig_0>
-82.6983

>  <SCORE.INTRA.VDW>
-3.7126

>  <SCORE.INTRA.VDW.0>
-2.11466

>  <SCORE.INTRA.norm>
-0.258792

>  <SCORE.RESTR>
0

>  <SCORE.RESTR.CAVITY>
0

>  <SCORE.RESTR.norm>
0

>  <SCORE.SYSTEM>
0

>  <SCORE.SYSTEM.CONST>
0

>  <SCORE.SYSTEM.DIHEDRAL>
0

>  <SCORE.SYSTEM.SOLV>
0

>  <SCORE.SYSTEM.norm>
0

>  <SCORE.heavy>
26

>  <SCORE.norm>
-0.567919

>  <RMSD>
8.552

$$$$
ligand
 OpenBabel11021811423D
libRbt.so/2013.1/901 2013/11/27
 26 27  0  0  0  0  0  0  0  0999 V2000
    2.0656  -19.4640 -100.6621 C   0  0  0  0  0  0  0  0  0  0  0  0
   -1.1050  -15.7976  -97.0163 C   0  0  0  0  0  0  0  0  0  0  0  0
   -0.7567  -11.1275  -94.8118 P   0  0  2  0  0  0  0  0  0  0  0  0
    0.1042  -11.8764  -92.2882 P   0  0  2  0  0  0  0  0  0  0  0  0
   -3.0097  -17.6900  -98.6722 C   0  0  0  0  0  0  0  0  0  0  0  0
   -0.9747  -17.4158 -100.0665 C   0  0  0  0  0  0  0  0  0  0  0  0
   -1.6954  -18.2095  -99.1835 C   0  0  0  0  0  0  0  0  0  0  0  0
   -1.1461  -19.4258  -98.7676 C   0  0  0  0  0  0  0  0  0  0  0  0
   -1.7380  -20.2630  -97.9152 N   0  0  0  0  0  0  0  0  0  0  0  0
    0.0761  -19.8066  -99.2583 N   0  0  0  0  0  0  0  0  0  0  0  0
    0.7529  -19.0133 -100.1414 C   0  0  0  0  0  0  0  0  0  0  0  0
    0.2505  -17.8200 -100.5517 N   0  0  0  0  0  0  0  0  0  0  0  0
    0.1785  -12.0709  -95.5422 O   0  5  0  0  0  0  0  0  0  0  0  0
    0.7087  -10.4951  -92.1731 O   0  0  0  0  0  0  0  0  0  0  0  0
   -4.0118  -13.9037  -98.8402 S   0  0  0  0  0  0  0  0  0  0  0  0
   -4.0839  -15.5026  -99.1479 C   0  0  0  0  0  0  0  0  0  0  0  0
   -0.0928   -9.7535  -94.8469 O   0  0  0  0  0  0  0  0  0  0  0  0
    1.1088  -12.8889  -92.7993 O   0  5  0  0  0  0  0  0  0  0  0  0
   -3.0890  -16.2539  -98.5513 N   0  0  0  0  0  0  0  0  0  0  0  0
   -1.0641  -11.7821  -93.3686 O   0  0  0  0  0  0  0  0  0  0  0  0
   -0.4156  -12.2820  -90.9240 O   0  0  0  0  0  0  0  0  0  0  0  0
   -2.2796  -15.4147  -97.8259 C   0  0  1  0  0  0  0  0  0  0  0  0
   -2.7177  -14.0846  -97.9219 C   0  0  2  0  0  0  0  0  0  0  0  0
   -2.2569  -12.7667  -97.3496 C   0  0  0  0  0  0  0  0  0  0  0  0
   -2.7920  -12.5590  -95.9287 C   0  0  0  0  0  0  0  0  0  0  0  0
   -2.2804  -11.3400  -95.4042 O   0  0  0  0  0  0  0  0  0  0  0  0
  1 11  1  0  0  0  0
  3 13  1  6  0  0  0
  3 17  2  0  0  0  0
  3 20  1  0  0  0  0
  3 26  1  0  0  0  0
  4 14  1  1  0  0  0
  4 18  1  0  0  0  0
  4 21  2  0  0  0  0
  4 20  1  0  0  0  0
  5 19  1  0  0  0  0
  5  7  1  0  0  0  0
  6  7  2  0  0  0  0
  6 12  1  0  0  0  0
  7  8  1  0  0  0  0
  8  9  1  0  0  0  0
  8 10  2  0  0  0  0
 10 11  1  0  0  0  0
 11 12  2  0  0  0  0
 15 23  1  0  0  0  0
 15 16  1  0  0  0  0
 16 19  1  0  0  0  0
 19 22  1  0  0  0  0
 22  2  1  1  0  0  0
 22 23  1  0  0  0  0
 23 24  1  1  0  0  0
 24 25  1  0  0  0  0
 25 26  1  0  0  0  0
M  CHG  2  13  -1  18  -1
M  END
>  <CHROM.1>
68.32459422,125.47442389,-30.98830291,51.34225521,96.73493906,177.10619659
-77.76713864,30.04037327,-1.16204594,-14.46513909,-96.55909997,-1.66539975
-0.64320355,0.66889970

>  <Name>
ligand

>  <RI>
0

>  <Rbt.Current_Directory>
/home/itssahil/PROJECTS/Mol_Feturizer/New_Systems/rnas/2CKY

>  <Rbt.Executable>
rbdock ($Id: //depot/dev/client3/rdock/2013.1/src/exe/rbdock.cxx#4 $)

>  <Rbt.Library>
libRbt.so (2013.1, Build901 2013/11/27)

>  <Rbt.Parameter_File>
/export/apps/rDock/src/rDock_2013.1_src/data/scripts/dock_solv.prm

>  <Rbt.Receptor>
prm/pocket_docking_6.prm

>  <SCORE>
-18.8896

>  <SCORE.INTER>
-13.6525

>  <SCORE.INTER.CONST>
1

>  <SCORE.INTER.POLAR>
0

>  <SCORE.INTER.ROT>
8

>  <SCORE.INTER.SOLV>
14.0398

>  <SCORE.INTER.VDW>
-22.715

>  <SCORE.INTER.norm>
-0.525097

>  <SCORE.INTRA>
-5.2371

>  <SCORE.INTRA.DIHEDRAL>
-9.01984

>  <SCORE.INTRA.DIHEDRAL.0>
16.4846

>  <SCORE.INTRA.POLAR>
0

>  <SCORE.INTRA.POLAR.0>
0

>  <SCORE.INTRA.REPUL>
0

>  <SCORE.INTRA.REPUL.0>
0

>  <SCORE.INTRA.SOLV>
1.45858

>  <SCORE.INTRA.SOLV.lig_0>
-82.6983

>  <SCORE.INTRA.VDW>
-1.45647

>  <SCORE.INTRA.VDW.0>
-2.11466

>  <SCORE.INTRA.norm>
-0.201427

>  <SCORE.RESTR>
0

>  <SCORE.RESTR.CAVITY>
0

>  <SCORE.RESTR.norm>
0

>  <SCORE.SYSTEM>
0

>  <SCORE.SYSTEM.CONST>
0

>  <SCORE.SYSTEM.DIHEDRAL>
0

>  <SCORE.SYSTEM.SOLV>
0

>  <SCORE.SYSTEM.norm>
0

>  <SCORE.heavy>
26

>  <SCORE.norm>
-0.726524

>  <RMSD>
8.567

$$$$
ligand
 OpenBabel11021811423D
libRbt.so/2013.1/901 2013/11/27
 26 27  0  0  0  0  0  0  0  0999 V2000
   -3.7287  -18.4151  -99.4334 C   0  0  0  0  0  0  0  0  0  0  0  0
    0.3648  -12.2356  -97.4205 C   0  0  0  0  0  0  0  0  0  0  0  0
    0.4344  -14.7968  -93.0931 P   0  0  2  0  0  0  0  0  0  0  0  0
    2.5945  -16.1584  -94.1659 P   0  0  2  0  0  0  0  0  0  0  0  0
   -2.2306  -12.8922  -99.0891 C   0  0  0  0  0  0  0  0  0  0  0  0
   -3.8700  -14.7446  -98.8852 C   0  0  0  0  0  0  0  0  0  0  0  0
   -2.5681  -14.3544  -99.1711 C   0  0  0  0  0  0  0  0  0  0  0  0
   -1.6460  -15.3250  -99.5736 C   0  0  0  0  0  0  0  0  0  0  0  0
   -0.3755  -15.0681  -99.8857 N   0  0  0  0  0  0  0  0  0  0  0  0
   -2.0492  -16.6328  -99.6548 N   0  0  0  0  0  0  0  0  0  0  0  0
   -3.3322  -16.9893  -99.3481 C   0  0  0  0  0  0  0  0  0  0  0  0
   -4.2531  -16.0661  -98.9684 N   0  0  0  0  0  0  0  0  0  0  0  0
    1.1730  -14.3788  -91.8371 O   0  5  0  0  0  0  0  0  0  0  0  0
    3.5594  -15.9798  -95.3164 O   0  0  0  0  0  0  0  0  0  0  0  0
   -2.9717  -11.5459  -95.4826 S   0  0  0  0  0  0  0  0  0  0  0  0
   -3.2815  -12.0963  -96.9850 C   0  0  0  0  0  0  0  0  0  0  0  0
   -0.4018  -16.0159  -92.7129 O   0  0  0  0  0  0  0  0  0  0  0  0
    1.8226  -17.4575  -94.2759 O   0  5  0  0  0  0  0  0  0  0  0  0
   -2.1605  -12.3598  -97.7493 N   0  0  0  0  0  0  0  0  0  0  0  0
    1.5363  -14.9699  -94.2601 O   0  0  0  0  0  0  0  0  0  0  0  0
    3.3839  -16.1143  -92.8733 O   0  0  0  0  0  0  0  0  0  0  0  0
   -1.0431  -12.0803  -97.0017 C   0  0  1  0  0  0  0  0  0  0  0  0
   -1.3945  -11.6251  -95.7212 C   0  0  2  0  0  0  0  0  0  0  0  0
   -0.6272  -11.1946  -94.4954 C   0  0  0  0  0  0  0  0  0  0  0  0
    0.3986  -12.2544  -94.0798 C   0  0  0  0  0  0  0  0  0  0  0  0
   -0.2761  -13.4622  -93.7499 O   0  0  0  0  0  0  0  0  0  0  0  0
  1 11  1  0  0  0  0
  3 13  1  1  0  0  0
  3 17  2  0  0  0  0
  3 20  1  0  0  0  0
  3 26  1  0  0  0  0
  4 14  1  6  0  0  0
  4 18  1  0  0  0  0
  4 21  2  0  0  0  0
  4 20  1  0  0  0  0
  5 19  1  0  0  0  0
  5  7  1  0  0  0  0
  6  7  2  0  0  0  0
  6 12  1  0  0  0  0
  7  8  1  0  0  0  0
  8  9  1  0  0  0  0
  8 10  2  0  0  0  0
 10 11  1  0  0  0  0
 11 12  2  0  0  0  0
 15 23  1  0  0  0  0
 15 16  1  0  0  0  0
 16 19  1  0  0  0  0
 19 22  1  0  0  0  0
 22  2  1  1  0  0  0
 22 23  1  0  0  0  0
 23 24  1  1  0  0  0
 24 25  1  0  0  0  0
 25 26  1  0  0  0  0
M  CHG  2  13  -1  18  -1
M  END
>  <CHROM.1>
67.99978259,-75.13582068,72.49161717,-174.74846497,127.00027406,-61.74130010
-172.76026330,54.03936144,-0.58188987,-14.44889630,-95.95537445,-2.78339115
-0.80551857,0.57863278

>  <Name>
ligand

>  <RI>
0

>  <Rbt.Current_Directory>
/home/itssahil/PROJECTS/Mol_Feturizer/New_Systems/rnas/2CKY

>  <Rbt.Executable>
rbdock ($Id: //depot/dev/client3/rdock/2013.1/src/exe/rbdock.cxx#4 $)

>  <Rbt.Library>
libRbt.so (2013.1, Build901 2013/11/27)

>  <Rbt.Parameter_File>
/export/apps/rDock/src/rDock_2013.1_src/data/scripts/dock_solv.prm

>  <Rbt.Receptor>
prm/pocket_docking_7.prm

>  <SCORE>
-19.3291

>  <SCORE.INTER>
-13.2666

>  <SCORE.INTER.CONST>
1

>  <SCORE.INTER.POLAR>
0

>  <SCORE.INTER.ROT>
8

>  <SCORE.INTER.SOLV>
9.61913

>  <SCORE.INTER.VDW>
-20.9841

>  <SCORE.INTER.norm>
-0.510254

>  <SCORE.INTRA>
-6.06247

>  <SCORE.INTRA.DIHEDRAL>
-11.4859

>  <SCORE.INTRA.DIHEDRAL.0>
16.4846

>  <SCORE.INTRA.POLAR>
0

>  <SCORE.INTRA.POLAR.0>
0

>  <SCORE.INTRA.REPUL>
0

>  <SCORE.INTRA.REPUL.0>
0

>  <SCORE.INTRA.SOLV>
2.84535

>  <SCORE.INTRA.SOLV.lig_0>
-82.6983

>  <SCORE.INTRA.VDW>
-1.74221

>  <SCORE.INTRA.VDW.0>
-2.11466

>  <SCORE.INTRA.norm>
-0.233172

>  <SCORE.RESTR>
0

>  <SCORE.RESTR.CAVITY>
0

>  <SCORE.RESTR.norm>
0

>  <SCORE.SYSTEM>
0

>  <SCORE.SYSTEM.CONST>
0

>  <SCORE.SYSTEM.DIHEDRAL>
0

>  <SCORE.SYSTEM.SOLV>
0

>  <SCORE.SYSTEM.norm>
0

>  <SCORE.heavy>
26

>  <SCORE.norm>
-0.743426

>  <RMSD>
8.572

$$$$
ligand
 OpenBabel11021811423D
libRbt.so/2013.1/901 2013/11/27
 26 27  0  0  0  0  0  0  0  0999 V2000
    1.2360   -8.4204  -97.4924 C   0  0  0  0  0  0  0  0  0  0  0  0
   -2.5375  -15.2914  -95.6393 C   0  0  0  0  0  0  0  0  0  0  0  0
   -3.3298  -19.6940  -98.5814 P   0  0  2  0  0  0  0  0  0  0  0  0
   -0.7514  -20.7023  -98.6547 P   0  0  2  0  0  0  0  0  0  0  0  0
   -2.7593  -12.1468  -95.7557 C   0  0  0  0  0  0  0  0  0  0  0  0
   -1.7635  -10.6095  -97.4306 C   0  0  0  0  0  0  0  0  0  0  0  0
   -1.6749  -11.1940  -96.1739 C   0  0  0  0  0  0  0  0  0  0  0  0
   -0.6169  -10.8322  -95.3348 C   0  0  0  0  0  0  0  0  0  0  0  0
   -0.4361  -11.3160  -94.1055 N   0  0  0  0  0  0  0  0  0  0  0  0
    0.3100   -9.9279  -95.7847 N   0  0  0  0  0  0  0  0  0  0  0  0
    0.2072   -9.3842  -97.0341 C   0  0  0  0  0  0  0  0  0  0  0  0
   -0.8176   -9.7059  -97.8653 N   0  0  0  0  0  0  0  0  0  0  0  0
   -3.6457  -20.7691  -97.5605 O   0  5  0  0  0  0  0  0  0  0  0  0
   -1.2090  -21.7385  -97.6529 O   0  0  0  0  0  0  0  0  0  0  0  0
   -4.0211  -13.9393  -99.0059 S   0  0  0  0  0  0  0  0  0  0  0  0
   -3.6818  -12.7099  -97.9911 C   0  0  0  0  0  0  0  0  0  0  0  0
   -4.6283  -19.4268  -99.3381 O   0  0  0  0  0  0  0  0  0  0  0  0
   -0.1377  -19.4954  -97.9747 O   0  5  0  0  0  0  0  0  0  0  0  0
   -3.1604  -13.0926  -96.7696 N   0  0  0  0  0  0  0  0  0  0  0  0
   -2.0516  -20.1996  -99.4278 O   0  0  0  0  0  0  0  0  0  0  0  0
    0.2478  -21.3542  -99.5887 O   0  0  0  0  0  0  0  0  0  0  0  0
   -3.0599  -14.4618  -96.7441 C   0  0  1  0  0  0  0  0  0  0  0  0
   -3.5113  -15.0228  -97.9491 C   0  0  2  0  0  0  0  0  0  0  0  0
   -3.6236  -16.4245  -98.4960 C   0  0  0  0  0  0  0  0  0  0  0  0
   -2.2956  -17.1789  -98.3716 C   0  0  0  0  0  0  0  0  0  0  0  0
   -2.5338  -18.4679  -97.8195 O   0  0  0  0  0  0  0  0  0  0  0  0
  1 11  1  0  0  0  0
  3 13  1  1  0  0  0
  3 17  2  0  0  0  0
  3 20  1  0  0  0  0
  3 26  1  0  0  0  0
  4 14  1  1  0  0  0
  4 18  1  0  0  0  0
  4 21  2  0  0  0  0
  4 20  1  0  0  0  0
  5 19  1  0  0  0  0
  5  7  1  0  0  0  0
  6  7  2  0  0  0  0
  6 12  1  0  0  0  0
  7  8  1  0  0  0  0
  8  9  1  0  0  0  0
  8 10  2  0  0  0  0
 10 11  1  0  0  0  0
 11 12  2  0  0  0  0
 15 23  1  0  0  0  0
 15 16  1  0  0  0  0
 16 19  1  0  0  0  0
 19 22  1  0  0  0  0
 22  2  1  6  0  0  0
 22 23  1  0  0  0  0
 23 24  1  6  0  0  0
 24 25  1  0  0  0  0
 25 26  1  0  0  0  0
M  CHG  2  13  -1  18  -1
M  END
>  <CHROM.1>
-50.86413692,-60.22199675,43.88984825,51.88020135,127.78901708,132.43114136
68.61521542,-167.30870009,-2.02459465,-15.75081120,-97.68680876,-1.46888977
0.21816692,-2.96461307

>  <Name>
ligand

>  <RI>
0

>  <Rbt.Current_Directory>
/home/itssahil/PROJECTS/Mol_Feturizer/New_Systems/rnas/2CKY

>  <Rbt.Executable>
rbdock ($Id: //depot/dev/client3/rdock/2013.1/src/exe/rbdock.cxx#4 $)

>  <Rbt.Library>
libRbt.so (2013.1, Build901 2013/11/27)

>  <Rbt.Parameter_File>
/export/apps/rDock/src/rDock_2013.1_src/data/scripts/dock_solv.prm

>  <Rbt.Receptor>
prm/pocket_docking_7.prm

>  <SCORE>
-20.0768

>  <SCORE.INTER>
-17.1453

>  <SCORE.INTER.CONST>
1

>  <SCORE.INTER.POLAR>
0

>  <SCORE.INTER.ROT>
8

>  <SCORE.INTER.SOLV>
22.2347

>  <SCORE.INTER.VDW>
-27.7751

>  <SCORE.INTER.norm>
-0.659436

>  <SCORE.INTRA>
-2.93149

>  <SCORE.INTRA.DIHEDRAL>
-6.00148

>  <SCORE.INTRA.DIHEDRAL.0>
16.4846

>  <SCORE.INTRA.POLAR>
0

>  <SCORE.INTRA.POLAR.0>
0

>  <SCORE.INTRA.REPUL>
0

>  <SCORE.INTRA.REPUL.0>
0

>  <SCORE.INTRA.SOLV>
1.27983

>  <SCORE.INTRA.SOLV.lig_0>
-82.6983

>  <SCORE.INTRA.VDW>
-0.570665

>  <SCORE.INTRA.VDW.0>
-2.11466

>  <SCORE.INTRA.norm>
-0.11275

>  <SCORE.RESTR>
0

>  <SCORE.RESTR.CAVITY>
0

>  <SCORE.RESTR.norm>
0

>  <SCORE.SYSTEM>
0

>  <SCORE.SYSTEM.CONST>
0

>  <SCORE.SYSTEM.DIHEDRAL>
0

>  <SCORE.SYSTEM.SOLV>
0

>  <SCORE.SYSTEM.norm>
0

>  <SCORE.heavy>
26

>  <SCORE.norm>
-0.772185

>  <RMSD>
8.584

$$$$
ligand
 OpenBabel11021811423D
libRbt.so/2013.1/901 2013/11/27
 26 27  0  0  0  0  0  0  0  0999 V2000
    3.8978  -11.1611 -100.6124 C   0  0  0  0  0  0  0  0  0  0  0  0
   -1.3452  -15.6130  -96.4189 C   0  0  0  0  0  0  0  0  0  0  0  0
   -2.9871  -18.6481  -98.8492 P   0  0  2  0  0  0  0  0  0  0  0  0
   -1.4891  -20.6593  -97.6737 P   0  0  2  0  0  0  0  0  0  0  0  0
    0.3195  -12.9347  -96.4996 C   0  0  0  0  0  0  0  0  0  0  0  0
    0.8164  -11.7551  -98.6261 C   0  0  0  0  0  0  0  0  0  0  0  0
    1.2928  -12.5135  -97.5646 C   0  0  0  0  0  0  0  0  0  0  0  0
    2.6586  -12.8051  -97.5032 C   0  0  0  0  0  0  0  0  0  0  0  0
    3.2311  -13.5116  -96.5281 N   0  0  0  0  0  0  0  0  0  0  0  0
    3.4815  -12.3510  -98.5012 N   0  0  0  0  0  0  0  0  0  0  0  0
    2.9804  -11.6234  -99.5437 C   0  0  0  0  0  0  0  0  0  0  0  0
    1.6606  -11.3126  -99.6219 N   0  0  0  0  0  0  0  0  0  0  0  0
   -4.3084  -19.3724  -99.0155 O   0  5  0  0  0  0  0  0  0  0  0  0
   -1.0154  -21.0254  -96.2851 O   0  0  0  0  0  0  0  0  0  0  0  0
   -3.2677  -12.6104  -98.0471 S   0  0  0  0  0  0  0  0  0  0  0  0
   -1.7840  -12.1467  -97.5575 C   0  0  0  0  0  0  0  0  0  0  0  0
   -2.2666  -18.7574 -100.1904 O   0  0  0  0  0  0  0  0  0  0  0  0
   -0.3295  -20.4446  -98.6249 O   0  5  0  0  0  0  0  0  0  0  0  0
   -1.0326  -13.1413  -96.9605 N   0  0  0  0  0  0  0  0  0  0  0  0
   -2.2616  -19.2706  -97.5483 O   0  0  0  0  0  0  0  0  0  0  0  0
   -2.3922  -21.7680  -98.1746 O   0  0  0  0  0  0  0  0  0  0  0  0
   -1.7689  -14.3002  -96.9469 C   0  0  1  0  0  0  0  0  0  0  0  0
   -3.0279  -14.1043  -97.5359 C   0  0  2  0  0  0  0  0  0  0  0  0
   -4.2229  -14.9826  -97.8135 C   0  0  0  0  0  0  0  0  0  0  0  0
   -3.8870  -16.0734  -98.8359 C   0  0  0  0  0  0  0  0  0  0  0  0
   -3.2808  -17.1748  -98.1706 O   0  0  0  0  0  0  0  0  0  0  0  0
  1 11  1  0  0  0  0
  3 13  1  6  0  0  0
  3 17  2  0  0  0  0
  3 20  1  0  0  0  0
  3 26  1  0  0  0  0
  4 14  1  1  0  0  0
  4 18  1  0  0  0  0
  4 21  2  0  0  0  0
  4 20  1  0  0  0  0
  5 19  1  0  0  0  0
  5  7  1  0  0  0  0
  6  7  2  0  0  0  0
  6 12  1  0  0  0  0
  7  8  1  0  0  0  0
  8  9  1  0  0  0  0
  8 10  2  0  0  0  0
 10 11  1  0  0  0  0
 11 12  2  0  0  0  0
 15 23  1  0  0  0  0
 15 16  1  0  0  0  0
 16 19  1  0  0  0  0
 19 22  1  0  0  0  0
 22  2  1  6  0  0  0
 22 23  1  0  0  0  0
 23 24  1  6  0  0  0
 24 25  1  0  0  0  0
 25 26  1  0  0  0  0
M  CHG  2  13  -1  18  -1
M  END
>  <CHROM.1>
79.79776985,-59.65679122,30.93869943,-175.76296300,113.96233834,83.87116236
169.58509256,-72.34799934,-1.07858055,-15.83487427,-98.09399242,-1.11209836
-0.04295061,3.13703228

>  <Name>
ligand

>  <RI>
0

>  <Rbt.Current_Directory>
/home/itssahil/PROJECTS/Mol_Feturizer/New_Systems/rnas/2CKY

>  <Rbt.Executable>
rbdock ($Id: //depot/dev/client3/rdock/2013.1/src/exe/rbdock.cxx#4 $)

>  <Rbt.Library>
libRbt.so (2013.1, Build901 2013/11/27)

>  <Rbt.Parameter_File>
/export/apps/rDock/src/rDock_2013.1_src/data/scripts/dock_solv.prm

>  <Rbt.Receptor>
prm/pocket_docking_7.prm

>  <SCORE>
-16.0716

>  <SCORE.INTER>
-11.3115

>  <SCORE.INTER.CONST>
1

>  <SCORE.INTER.POLAR>
0

>  <SCORE.INTER.ROT>
8

>  <SCORE.INTER.SOLV>
12.1333

>  <SCORE.INTER.VDW>
-20.5188

>  <SCORE.INTER.norm>
-0.435058

>  <SCORE.INTRA>
-4.76011

>  <SCORE.INTRA.DIHEDRAL>
-9.01175

>  <SCORE.INTRA.DIHEDRAL.0>
16.4846

>  <SCORE.INTRA.POLAR>
0

>  <SCORE.INTRA.POLAR.0>
0

>  <SCORE.INTRA.REPUL>
0

>  <SCORE.INTRA.REPUL.0>
0

>  <SCORE.INTRA.SOLV>
1.89097

>  <SCORE.INTRA.SOLV.lig_0>
-82.6983

>  <SCORE.INTRA.VDW>
-1.19972

>  <SCORE.INTRA.VDW.0>
-2.11466

>  <SCORE.INTRA.norm>
-0.183081

>  <SCORE.RESTR>
0

>  <SCORE.RESTR.CAVITY>
0

>  <SCORE.RESTR.norm>
0

>  <SCORE.SYSTEM>
0

>  <SCORE.SYSTEM.CONST>
0

>  <SCORE.SYSTEM.DIHEDRAL>
0

>  <SCORE.SYSTEM.SOLV>
0

>  <SCORE.SYSTEM.norm>
0

>  <SCORE.heavy>
26

>  <SCORE.norm>
-0.618139

>  <RMSD>
8.597

$$$$
ligand
 OpenBabel11021811423D
libRbt.so/2013.1/901 2013/11/27
 26 27  0  0  0  0  0  0  0  0999 V2000
    1.6636  -17.3530 -101.4423 C   0  0  0  0  0  0  0  0  0  0  0  0
   -3.1206  -14.9552  -96.2092 C   0  0  0  0  0  0  0  0  0  0  0  0
    1.1476  -13.1748  -94.3478 P   0  0  2  0  0  0  0  0  0  0  0  0
    2.6903  -15.4002  -94.9292 P   0  0  2  0  0  0  0  0  0  0  0  0
   -3.1238  -14.9811  -99.3636 C   0  0  0  0  0  0  0  0  0  0  0  0
   -0.9780  -14.8797 -100.6070 C   0  0  0  0  0  0  0  0  0  0  0  0
   -1.8955  -15.6541  -99.9087 C   0  0  0  0  0  0  0  0  0  0  0  0
   -1.6133  -17.0067  -99.6964 C   0  0  0  0  0  0  0  0  0  0  0  0
   -2.4103  -17.8432  -99.0310 N   0  0  0  0  0  0  0  0  0  0  0  0
   -0.4510  -17.5311 -100.2000 N   0  0  0  0  0  0  0  0  0  0  0  0
    0.4234  -16.7485 -100.9002 C   0  0  0  0  0  0  0  0  0  0  0  0
    0.1825  -15.4283 -101.1093 N   0  0  0  0  0  0  0  0  0  0  0  0
    2.0581  -12.2590  -95.1418 O   0  5  0  0  0  0  0  0  0  0  0  0
    3.0960  -15.4672  -93.4741 O   0  0  0  0  0  0  0  0  0  0  0  0
   -2.3969  -11.4537  -97.8152 S   0  0  0  0  0  0  0  0  0  0  0  0
   -2.6125  -12.5835  -98.9699 C   0  0  0  0  0  0  0  0  0  0  0  0
    1.5275  -12.9901  -92.8810 O   0  0  0  0  0  0  0  0  0  0  0  0
    3.6672  -14.5815  -95.7483 O   0  5  0  0  0  0  0  0  0  0  0  0
   -2.8653  -13.8570  -98.4960 N   0  0  0  0  0  0  0  0  0  0  0  0
    1.2836  -14.6522  -94.9838 O   0  0  0  0  0  0  0  0  0  0  0  0
    2.6015  -16.8156  -95.4627 O   0  0  0  0  0  0  0  0  0  0  0  0
   -2.8726  -13.8218  -97.1233 C   0  0  1  0  0  0  0  0  0  0  0  0
   -2.6257  -12.5231  -96.6512 C   0  0  2  0  0  0  0  0  0  0  0  0
   -2.5321  -11.8847  -95.2873 C   0  0  0  0  0  0  0  0  0  0  0  0
   -1.0727  -11.6785  -94.8679 C   0  0  0  0  0  0  0  0  0  0  0  0
   -0.4035  -12.9335  -94.8509 O   0  0  0  0  0  0  0  0  0  0  0  0
  1 11  1  0  0  0  0
  3 13  1  6  0  0  0
  3 17  2  0  0  0  0
  3 20  1  0  0  0  0
  3 26  1  0  0  0  0
  4 14  1  1  0  0  0
  4 18  1  0  0  0  0
  4 21  2  0  0  0  0
  4 20  1  0  0  0  0
  5 19  1  0  0  0  0
  5  7  1  0  0  0  0
  6  7  2  0  0  0  0
  6 12  1  0  0  0  0
  7  8  1  0  0  0  0
  8  9  1  0  0  0  0
  8 10  2  0  0  0  0
 10 11  1  0  0  0  0
 11 12  2  0  0  0  0
 15 23  1  0  0  0  0
 15 16  1  0  0  0  0
 16 19  1  0  0  0  0
 19 22  1  0  0  0  0
 22  2  1  6  0  0  0
 22 23  1  0  0  0  0
 23 24  1  6  0  0  0
 24 25  1  0  0  0  0
 25 26  1  0  0  0  0
M  CHG  2  13  -1  18  -1
M  END
>  <CHROM.1>
63.33387287,83.19963331,-55.84304031,56.64988561,-79.33995905,-58.87105711
-175.22163170,-55.52642948,-0.18374379,-14.39119479,-96.95427583,-2.19271480
-0.56077013,0.90179065

>  <Name>
ligand

>  <RI>
0

>  <Rbt.Current_Directory>
/home/itssahil/PROJECTS/Mol_Feturizer/New_Systems/rnas/2CKY

>  <Rbt.Executable>
rbdock ($Id: //depot/dev/client3/rdock/2013.1/src/exe/rbdock.cxx#4 $)

>  <Rbt.Library>
libRbt.so (2013.1, Build901 2013/11/27)

>  <Rbt.Parameter_File>
/export/apps/rDock/src/rDock_2013.1_src/data/scripts/dock_solv.prm

>  <Rbt.Receptor>
prm/pocket_docking_6.prm

>  <SCORE>
-17.9852

>  <SCORE.INTER>
-11.1418

>  <SCORE.INTER.CONST>
1

>  <SCORE.INTER.POLAR>
0

>  <SCORE.INTER.ROT>
8

>  <SCORE.INTER.SOLV>
5.28273

>  <SCORE.INTER.VDW>
-18.1221

>  <SCORE.INTER.norm>
-0.428529

>  <SCORE.INTRA>
-6.84348

>  <SCORE.INTRA.DIHEDRAL>
-11.0284

>  <SCORE.INTRA.DIHEDRAL.0>
16.4846

>  <SCORE.INTRA.POLAR>
0

>  <SCORE.INTRA.POLAR.0>
0

>  <SCORE.INTRA.REPUL>
0

>  <SCORE.INTRA.REPUL.0>
0

>  <SCORE.INTRA.SOLV>
0.898958

>  <SCORE.INTRA.SOLV.lig_0>
-82.6983

>  <SCORE.INTRA.VDW>
-1.77878

>  <SCORE.INTRA.VDW.0>
-2.11466

>  <SCORE.INTRA.norm>
-0.263211

>  <SCORE.RESTR>
0

>  <SCORE.RESTR.CAVITY>
0

>  <SCORE.RESTR.norm>
0

>  <SCORE.SYSTEM>
0

>  <SCORE.SYSTEM.CONST>
0

>  <SCORE.SYSTEM.DIHEDRAL>
0

>  <SCORE.SYSTEM.SOLV>
0

>  <SCORE.SYSTEM.norm>
0

>  <SCORE.heavy>
26

>  <SCORE.norm>
-0.69174

>  <RMSD>
8.638

$$$$
ligand
 OpenBabel11021811423D
libRbt.so/2013.1/901 2013/11/27
 26 27  0  0  0  0  0  0  0  0999 V2000
    4.0565  -18.0127 -100.5155 C   0  0  0  0  0  0  0  0  0  0  0  0
   -0.3846  -12.8631  -98.3621 C   0  0  0  0  0  0  0  0  0  0  0  0
   -0.8921  -16.4440  -94.8914 P   0  0  2  0  0  0  0  0  0  0  0  0
    1.2795  -16.5403  -96.6076 P   0  0  2  0  0  0  0  0  0  0  0  0
   -0.2184  -14.2528 -101.1892 C   0  0  0  0  0  0  0  0  0  0  0  0
    0.7414  -16.5385 -101.3095 C   0  0  0  0  0  0  0  0  0  0  0  0
    0.9250  -15.2038 -100.9724 C   0  0  0  0  0  0  0  0  0  0  0  0
    2.1751  -14.7931 -100.5001 C   0  0  0  0  0  0  0  0  0  0  0  0
    2.4722  -13.5390 -100.1585 N   0  0  0  0  0  0  0  0  0  0  0  0
    3.1739  -15.7225 -100.3658 N   0  0  0  0  0  0  0  0  0  0  0  0
    2.9574  -17.0329 -100.6871 C   0  0  0  0  0  0  0  0  0  0  0  0
    1.7580  -17.4577 -101.1620 N   0  0  0  0  0  0  0  0  0  0  0  0
   -1.1387  -16.0752  -93.4419 O   0  5  0  0  0  0  0  0  0  0  0  0
    0.4729  -15.8937  -97.7112 O   0  0  0  0  0  0  0  0  0  0  0  0
   -3.4582  -15.1555  -99.1750 S   0  0  0  0  0  0  0  0  0  0  0  0
   -2.4014  -15.1477 -100.4156 C   0  0  0  0  0  0  0  0  0  0  0  0
   -1.3164  -17.9027  -95.0406 O   0  0  0  0  0  0  0  0  0  0  0  0
    1.1815  -18.0517  -96.6511 O   0  5  0  0  0  0  0  0  0  0  0  0
   -1.2852  -14.3560 -100.2224 N   0  0  0  0  0  0  0  0  0  0  0  0
    0.6406  -16.0643  -95.2270 O   0  0  0  0  0  0  0  0  0  0  0  0
    2.7207  -16.0946  -96.7497 O   0  0  0  0  0  0  0  0  0  0  0  0
   -1.3702  -13.7712  -98.9829 C   0  0  1  0  0  0  0  0  0  0  0  0
   -2.5453  -14.1611  -98.3214 C   0  0  2  0  0  0  0  0  0  0  0  0
   -3.1570  -13.8680  -96.9736 C   0  0  0  0  0  0  0  0  0  0  0  0
   -2.9458  -15.0332  -96.0009 C   0  0  0  0  0  0  0  0  0  0  0  0
   -1.5526  -15.2748  -95.8476 O   0  0  0  0  0  0  0  0  0  0  0  0
  1 11  1  0  0  0  0
  3 13  1  1  0  0  0
  3 17  2  0  0  0  0
  3 20  1  0  0  0  0
  3 26  1  0  0  0  0
  4 14  1  6  0  0  0
  4 18  1  0  0  0  0
  4 21  2  0  0  0  0
  4 20  1  0  0  0  0
  5 19  1  0  0  0  0
  5  7  1  0  0  0  0
  6  7  2  0  0  0  0
  6 12  1  0  0  0  0
  7  8  1  0  0  0  0
  8  9  1  0  0  0  0
  8 10  2  0  0  0  0
 10 11  1  0  0  0  0
 11 12  2  0  0  0  0
 15 23  1  0  0  0  0
 15 16  1  0  0  0  0
 16 19  1  0  0  0  0
 19 22  1  0  0  0  0
 22  2  1  1  0  0  0
 22 23  1  0  0  0  0
 23 24  1  1  0  0  0
 24 25  1  0  0  0  0
 25 26  1  0  0  0  0
M  CHG  2  13  -1  18  -1
M  END
>  <CHROM.1>
170.44324918,-93.26389495,75.32905023,61.60081594,77.42795338,58.83655854
-179.87324149,-68.84862009,-0.05907113,-15.68200790,-98.04721690,-0.87497915
-0.42698851,1.88545416

>  <Name>
ligand

>  <RI>
0

>  <Rbt.Current_Directory>
/home/itssahil/PROJECTS/Mol_Feturizer/New_Systems/rnas/2CKY

>  <Rbt.Executable>
rbdock ($Id: //depot/dev/client3/rdock/2013.1/src/exe/rbdock.cxx#4 $)

>  <Rbt.Library>
libRbt.so (2013.1, Build901 2013/11/27)

>  <Rbt.Parameter_File>
/export/apps/rDock/src/rDock_2013.1_src/data/scripts/dock_solv.prm

>  <Rbt.Receptor>
prm/pocket_docking_4.prm

>  <SCORE>
-15.1469

>  <SCORE.INTER>
-6.08328

>  <SCORE.INTER.CONST>
1

>  <SCORE.INTER.POLAR>
0

>  <SCORE.INTER.ROT>
8

>  <SCORE.INTER.SOLV>
12.4534

>  <SCORE.INTER.VDW>
-17.14

>  <SCORE.INTER.norm>
-0.233972

>  <SCORE.INTRA>
-9.06364

>  <SCORE.INTRA.DIHEDRAL>
-11.1306

>  <SCORE.INTRA.DIHEDRAL.0>
16.4846

>  <SCORE.INTRA.POLAR>
0

>  <SCORE.INTRA.POLAR.0>
0

>  <SCORE.INTRA.REPUL>
0

>  <SCORE.INTRA.REPUL.0>
0

>  <SCORE.INTRA.SOLV>
1.59083

>  <SCORE.INTRA.SOLV.lig_0>
-82.6983

>  <SCORE.INTRA.VDW>
-4.29377

>  <SCORE.INTRA.VDW.0>
-2.11466

>  <SCORE.INTRA.norm>
-0.348601

>  <SCORE.RESTR>
0

>  <SCORE.RESTR.CAVITY>
0

>  <SCORE.RESTR.norm>
0

>  <SCORE.SYSTEM>
0

>  <SCORE.SYSTEM.CONST>
0

>  <SCORE.SYSTEM.DIHEDRAL>
0

>  <SCORE.SYSTEM.SOLV>
0

>  <SCORE.SYSTEM.norm>
0

>  <SCORE.heavy>
26

>  <SCORE.norm>
-0.582574

>  <RMSD>
8.642

$$$$
ligand
 OpenBabel11021811423D
libRbt.so/2013.1/901 2013/11/27
 26 27  0  0  0  0  0  0  0  0999 V2000
    3.7628  -11.0324 -100.5417 C   0  0  0  0  0  0  0  0  0  0  0  0
   -1.3454  -12.1303  -95.0882 C   0  0  0  0  0  0  0  0  0  0  0  0
   -0.3333  -17.3380  -97.1294 P   0  0  2  0  0  0  0  0  0  0  0  0
    1.2736  -15.1865  -97.8073 P   0  0  2  0  0  0  0  0  0  0  0  0
   -1.1945  -10.4126  -97.7299 C   0  0  0  0  0  0  0  0  0  0  0  0
    0.2774  -11.5545  -99.3700 C   0  0  0  0  0  0  0  0  0  0  0  0
    0.1319  -10.5488  -98.4232 C   0  0  0  0  0  0  0  0  0  0  0  0
    1.2006   -9.6767  -98.1959 C   0  0  0  0  0  0  0  0  0  0  0  0
    1.1729   -8.6687  -97.3236 N   0  0  0  0  0  0  0  0  0  0  0  0
    2.3643   -9.8526  -98.8990 N   0  0  0  0  0  0  0  0  0  0  0  0
    2.4845  -10.8637  -99.8103 C   0  0  0  0  0  0  0  0  0  0  0  0
    1.4582  -11.7169 -100.0623 N   0  0  0  0  0  0  0  0  0  0  0  0
   -0.3640  -18.3946  -96.0428 O   0  5  0  0  0  0  0  0  0  0  0  0
    1.7535  -15.9238  -99.0372 O   0  0  0  0  0  0  0  0  0  0  0  0
   -3.2944  -13.7019  -98.1040 S   0  0  0  0  0  0  0  0  0  0  0  0
   -2.6089  -12.2876  -98.5354 C   0  0  0  0  0  0  0  0  0  0  0  0
   -0.2153  -18.0883  -98.4535 O   0  0  0  0  0  0  0  0  0  0  0  0
    2.3809  -14.3692  -97.1739 O   0  5  0  0  0  0  0  0  0  0  0  0
   -1.9048  -11.6531  -97.5295 N   0  0  0  0  0  0  0  0  0  0  0  0
    0.8352  -16.2923  -96.7461 O   0  0  0  0  0  0  0  0  0  0  0  0
    0.1159  -14.2957  -98.2097 O   0  0  0  0  0  0  0  0  0  0  0  0
   -1.9716  -12.4219  -96.3938 C   0  0  1  0  0  0  0  0  0  0  0  0
   -2.7214  -13.5873  -96.6176 C   0  0  2  0  0  0  0  0  0  0  0  0
   -3.1139  -14.7793  -95.7800 C   0  0  0  0  0  0  0  0  0  0  0  0
   -1.9388  -15.7469  -95.6031 C   0  0  0  0  0  0  0  0  0  0  0  0
   -1.5738  -16.2841  -96.8684 O   0  0  0  0  0  0  0  0  0  0  0  0
  1 11  1  0  0  0  0
  3 13  1  1  0  0  0
  3 17  2  0  0  0  0
  3 20  1  0  0  0  0
  3 26  1  0  0  0  0
  4 14  1  6  0  0  0
  4 18  1  0  0  0  0
  4 21  2  0  0  0  0
  4 20  1  0  0  0  0
  5 19  1  0  0  0  0
  5  7  1  0  0  0  0
  6  7  2  0  0  0  0
  6 12  1  0  0  0  0
  7  8  1  0  0  0  0
  8  9  1  0  0  0  0
  8 10  2  0  0  0  0
 10 11  1  0  0  0  0
 11 12  2  0  0  0  0
 15 23  1  0  0  0  0
 15 16  1  0  0  0  0
 16 19  1  0  0  0  0
 19 22  1  0  0  0  0
 22  2  1  6  0  0  0
 22 23  1  0  0  0  0
 23 24  1  6  0  0  0
 24 25  1  0  0  0  0
 25 26  1  0  0  0  0
M  CHG  2  13  -1  18  -1
M  END
>  <CHROM.1>
170.52302109,-78.13098676,32.43948218,-59.62470803,103.61405595,-64.14981558
178.46682649,43.57347438,-0.18192972,-13.73895571,-97.71876661,-1.24772821
-0.41105104,2.99642230

>  <Name>
ligand

>  <RI>
0

>  <Rbt.Current_Directory>
/home/itssahil/PROJECTS/Mol_Feturizer/New_Systems/rnas/2CKY

>  <Rbt.Executable>
rbdock ($Id: //depot/dev/client3/rdock/2013.1/src/exe/rbdock.cxx#4 $)

>  <Rbt.Library>
libRbt.so (2013.1, Build901 2013/11/27)

>  <Rbt.Parameter_File>
/export/apps/rDock/src/rDock_2013.1_src/data/scripts/dock_solv.prm

>  <Rbt.Receptor>
prm/pocket_docking_8.prm

>  <SCORE>
-16.3556

>  <SCORE.INTER>
-7.69374

>  <SCORE.INTER.CONST>
1

>  <SCORE.INTER.POLAR>
0

>  <SCORE.INTER.ROT>
8

>  <SCORE.INTER.SOLV>
4.18352

>  <SCORE.INTER.VDW>
-15.457

>  <SCORE.INTER.norm>
-0.295913

>  <SCORE.INTRA>
-8.66191

>  <SCORE.INTRA.DIHEDRAL>
-11.4314

>  <SCORE.INTRA.DIHEDRAL.0>
16.4846

>  <SCORE.INTRA.POLAR>
0

>  <SCORE.INTRA.POLAR.0>
0

>  <SCORE.INTRA.REPUL>
0

>  <SCORE.INTRA.REPUL.0>
0

>  <SCORE.INTRA.SOLV>
2.17025

>  <SCORE.INTRA.SOLV.lig_0>
-82.6983

>  <SCORE.INTRA.VDW>
-4.03133

>  <SCORE.INTRA.VDW.0>
-2.11466

>  <SCORE.INTRA.norm>
-0.33315

>  <SCORE.RESTR>
0

>  <SCORE.RESTR.CAVITY>
0

>  <SCORE.RESTR.norm>
0

>  <SCORE.SYSTEM>
0

>  <SCORE.SYSTEM.CONST>
0

>  <SCORE.SYSTEM.DIHEDRAL>
0

>  <SCORE.SYSTEM.SOLV>
0

>  <SCORE.SYSTEM.norm>
0

>  <SCORE.heavy>
26

>  <SCORE.norm>
-0.629063

>  <RMSD>
8.655

$$$$
ligand
 OpenBabel11021811423D
libRbt.so/2013.1/901 2013/11/27
 26 27  0  0  0  0  0  0  0  0999 V2000
    4.8060  -11.9762  -95.5168 C   0  0  0  0  0  0  0  0  0  0  0  0
    3.5539  -16.4619  -99.8145 C   0  0  0  0  0  0  0  0  0  0  0  0
   -1.6819  -17.4238  -97.4957 P   0  0  2  0  0  0  0  0  0  0  0  0
   -3.6038  -18.7578  -98.9780 P   0  0  2  0  0  0  0  0  0  0  0  0
    3.0978  -13.4920 -100.7751 C   0  0  0  0  0  0  0  0  0  0  0  0
    4.6416  -13.6329  -98.8367 C   0  0  0  0  0  0  0  0  0  0  0  0
    3.4912  -13.0800  -99.3843 C   0  0  0  0  0  0  0  0  0  0  0  0
    2.7822  -12.1286  -98.6451 C   0  0  0  0  0  0  0  0  0  0  0  0
    1.6743  -11.5215  -99.0717 N   0  0  0  0  0  0  0  0  0  0  0  0
    3.2323  -11.7854  -97.3965 N   0  0  0  0  0  0  0  0  0  0  0  0
    4.3569  -12.3612  -96.8761 C   0  0  0  0  0  0  0  0  0  0  0  0
    5.0739  -13.2773  -97.5770 N   0  0  0  0  0  0  0  0  0  0  0  0
   -0.7483  -17.7371  -96.3432 O   0  5  0  0  0  0  0  0  0  0  0  0
   -4.7953  -19.5688  -98.5206 O   0  0  0  0  0  0  0  0  0  0  0  0
    0.0284  -15.8458 -101.4129 S   0  0  0  0  0  0  0  0  0  0  0  0
    0.9021  -14.4701 -101.3972 C   0  0  0  0  0  0  0  0  0  0  0  0
   -2.4216  -16.1447  -97.1127 O   0  0  0  0  0  0  0  0  0  0  0  0
   -2.9142  -19.3936 -100.1679 O   0  5  0  0  0  0  0  0  0  0  0  0
    2.1619  -14.5888 -100.8413 N   0  0  0  0  0  0  0  0  0  0  0  0
   -2.5590  -18.7501  -97.7741 O   0  0  0  0  0  0  0  0  0  0  0  0
   -4.0835  -17.3623  -99.3221 O   0  0  0  0  0  0  0  0  0  0  0  0
    2.3453  -15.8897 -100.4419 C   0  0  1  0  0  0  0  0  0  0  0  0
    1.2117  -16.6680 -100.7238 C   0  0  2  0  0  0  0  0  0  0  0  0
    0.8414  -18.1187 -100.5368 C   0  0  0  0  0  0  0  0  0  0  0  0
    0.2813  -18.3741  -99.1335 C   0  0  0  0  0  0  0  0  0  0  0  0
   -0.8241  -17.5097  -98.9009 O   0  0  0  0  0  0  0  0  0  0  0  0
  1 11  1  0  0  0  0
  3 13  1  1  0  0  0
  3 17  2  0  0  0  0
  3 20  1  0  0  0  0
  3 26  1  0  0  0  0
  4 14  1  1  0  0  0
  4 18  1  0  0  0  0
  4 21  2  0  0  0  0
  4 20  1  0  0  0  0
  5 19  1  0  0  0  0
  5  7  1  0  0  0  0
  6  7  2  0  0  0  0
  6 12  1  0  0  0  0
  7  8  1  0  0  0  0
  8  9  1  0  0  0  0
  8 10  2  0  0  0  0
 10 11  1  0  0  0  0
 11 12  2  0  0  0  0
 15 23  1  0  0  0  0
 15 16  1  0  0  0  0
 16 19  1  0  0  0  0
 19 22  1  0  0  0  0
 22  2  1  6  0  0  0
 22 23  1  0  0  0  0
 23 24  1  6  0  0  0
 24 25  1  0  0  0  0
 25 26  1  0  0  0  0
M  CHG  2  13  -1  18  -1
M  END
>  <CHROM.1>
-177.54399556,118.08910148,93.87353340,-143.94244989,-95.08295047,55.77257489
-177.77370376,31.39221962,0.32423540,-15.96478981,-98.96329781,0.22243271
0.66326582,1.27641009

>  <Name>
ligand

>  <RI>
0

>  <Rbt.Current_Directory>
/home/itssahil/PROJECTS/Mol_Feturizer/New_Systems/rnas/2CKY

>  <Rbt.Executable>
rbdock ($Id: //depot/dev/client3/rdock/2013.1/src/exe/rbdock.cxx#4 $)

>  <Rbt.Library>
libRbt.so (2013.1, Build901 2013/11/27)

>  <Rbt.Parameter_File>
/export/apps/rDock/src/rDock_2013.1_src/data/scripts/dock_solv.prm

>  <Rbt.Receptor>
prm/pocket_docking_7.prm

>  <SCORE>
-17.4187

>  <SCORE.INTER>
-11.7806

>  <SCORE.INTER.CONST>
1

>  <SCORE.INTER.POLAR>
0

>  <SCORE.INTER.ROT>
8

>  <SCORE.INTER.SOLV>
13.5341

>  <SCORE.INTER.VDW>
-21.2984

>  <SCORE.INTER.norm>
-0.453101

>  <SCORE.INTRA>
-5.6381

>  <SCORE.INTRA.DIHEDRAL>
-9.02173

>  <SCORE.INTRA.DIHEDRAL.0>
16.4846

>  <SCORE.INTRA.POLAR>
0

>  <SCORE.INTRA.POLAR.0>
0

>  <SCORE.INTRA.REPUL>
0

>  <SCORE.INTRA.REPUL.0>
0

>  <SCORE.INTRA.SOLV>
1.90779

>  <SCORE.INTRA.SOLV.lig_0>
-82.6983

>  <SCORE.INTRA.VDW>
-2.08113

>  <SCORE.INTRA.VDW.0>
-2.11466

>  <SCORE.INTRA.norm>
-0.21685

>  <SCORE.RESTR>
0

>  <SCORE.RESTR.CAVITY>
0

>  <SCORE.RESTR.norm>
0

>  <SCORE.SYSTEM>
0

>  <SCORE.SYSTEM.CONST>
0

>  <SCORE.SYSTEM.DIHEDRAL>
0

>  <SCORE.SYSTEM.SOLV>
0

>  <SCORE.SYSTEM.norm>
0

>  <SCORE.heavy>
26

>  <SCORE.norm>
-0.669951

>  <RMSD>
8.671

$$$$
ligand
 OpenBabel11021811423D
libRbt.so/2013.1/901 2013/11/27
 26 27  0  0  0  0  0  0  0  0999 V2000
    1.6919  -17.5603 -101.3979 C   0  0  0  0  0  0  0  0  0  0  0  0
   -3.1432  -15.0715  -96.6061 C   0  0  0  0  0  0  0  0  0  0  0  0
    0.7860  -14.1686  -94.4486 P   0  0  2  0  0  0  0  0  0  0  0  0
    1.9616  -16.5325  -95.2855 P   0  0  2  0  0  0  0  0  0  0  0  0
   -3.0523  -14.7972  -99.7474 C   0  0  0  0  0  0  0  0  0  0  0  0
   -0.8786  -14.9191 -100.9394 C   0  0  0  0  0  0  0  0  0  0  0  0
   -1.8371  -15.5715 -100.1747 C   0  0  0  0  0  0  0  0  0  0  0  0
   -1.6069  -16.8958  -99.7908 C   0  0  0  0  0  0  0  0  0  0  0  0
   -2.4465  -17.6176  -99.0480 N   0  0  0  0  0  0  0  0  0  0  0  0
   -0.4533  -17.5154 -100.1967 N   0  0  0  0  0  0  0  0  0  0  0  0
    0.4624  -16.8538 -100.9655 C   0  0  0  0  0  0  0  0  0  0  0  0
    0.2723  -15.5626 -101.3412 N   0  0  0  0  0  0  0  0  0  0  0  0
    1.8856  -13.2963  -95.0213 O   0  5  0  0  0  0  0  0  0  0  0  0
    1.6394  -17.6582  -96.2423 O   0  0  0  0  0  0  0  0  0  0  0  0
   -2.3150  -11.4476  -97.8488 S   0  0  0  0  0  0  0  0  0  0  0  0
   -2.5142  -12.4581  -99.1118 C   0  0  0  0  0  0  0  0  0  0  0  0
    1.0804  -14.3053  -92.9571 O   0  0  0  0  0  0  0  0  0  0  0  0
    2.0797  -17.0248  -93.8574 O   0  5  0  0  0  0  0  0  0  0  0  0
   -2.8018  -13.7658  -98.7692 N   0  0  0  0  0  0  0  0  0  0  0  0
    0.7345  -15.5163  -95.3358 O   0  0  0  0  0  0  0  0  0  0  0  0
    3.2548  -15.8834  -95.7349 O   0  0  0  0  0  0  0  0  0  0  0  0
   -2.8496  -13.8612  -97.4003 C   0  0  1  0  0  0  0  0  0  0  0  0
   -2.5959  -12.6183  -96.7993 C   0  0  2  0  0  0  0  0  0  0  0  0
   -2.5328  -12.1144  -95.3785 C   0  0  0  0  0  0  0  0  0  0  0  0
   -1.1194  -12.2493  -94.8020 C   0  0  0  0  0  0  0  0  0  0  0  0
   -0.6663  -13.5872  -94.9687 O   0  0  0  0  0  0  0  0  0  0  0  0
  1 11  1  0  0  0  0
  3 13  1  6  0  0  0
  3 17  2  0  0  0  0
  3 20  1  0  0  0  0
  3 26  1  0  0  0  0
  4 14  1  6  0  0  0
  4 18  1  0  0  0  0
  4 21  2  0  0  0  0
  4 20  1  0  0  0  0
  5 19  1  0  0  0  0
  5  7  1  0  0  0  0
  6  7  2  0  0  0  0
  6 12  1  0  0  0  0
  7  8  1  0  0  0  0
  8  9  1  0  0  0  0
  8 10  2  0  0  0  0
 10 11  1  0  0  0  0
 11 12  2  0  0  0  0
 15 23  1  0  0  0  0
 15 16  1  0  0  0  0
 16 19  1  0  0  0  0
 19 22  1  0  0  0  0
 22  2  1  6  0  0  0
 22 23  1  0  0  0  0
 23 24  1  6  0  0  0
 24 25  1  0  0  0  0
 25 26  1  0  0  0  0
M  CHG  2  13  -1  18  -1
M  END
>  <CHROM.1>
67.04387208,91.50109581,-69.43447218,-178.27890858,-91.07491868,-52.73363446
-178.18445776,-54.70228242,-0.38939069,-14.86238160,-97.13276154,-2.23297387
-0.74374845,1.02219104

>  <Name>
ligand

>  <RI>
0

>  <Rbt.Current_Directory>
/home/itssahil/PROJECTS/Mol_Feturizer/New_Systems/rnas/2CKY

>  <Rbt.Executable>
rbdock ($Id: //depot/dev/client3/rdock/2013.1/src/exe/rbdock.cxx#4 $)

>  <Rbt.Library>
libRbt.so (2013.1, Build901 2013/11/27)

>  <Rbt.Parameter_File>
/export/apps/rDock/src/rDock_2013.1_src/data/scripts/dock_solv.prm

>  <Rbt.Receptor>
prm/pocket_docking_5.prm

>  <SCORE>
-18.3121

>  <SCORE.INTER>
-12.1232

>  <SCORE.INTER.CONST>
1

>  <SCORE.INTER.POLAR>
0

>  <SCORE.INTER.ROT>
8

>  <SCORE.INTER.SOLV>
5.03715

>  <SCORE.INTER.VDW>
-18.6945

>  <SCORE.INTER.norm>
-0.466278

>  <SCORE.INTRA>
-6.18885

>  <SCORE.INTRA.DIHEDRAL>
-11.1471

>  <SCORE.INTRA.DIHEDRAL.0>
16.4846

>  <SCORE.INTRA.POLAR>
0

>  <SCORE.INTRA.POLAR.0>
0

>  <SCORE.INTRA.REPUL>
0

>  <SCORE.INTRA.REPUL.0>
0

>  <SCORE.INTRA.SOLV>
3.28876

>  <SCORE.INTRA.SOLV.lig_0>
-82.6983

>  <SCORE.INTRA.VDW>
-2.25965

>  <SCORE.INTRA.VDW.0>
-2.11466

>  <SCORE.INTRA.norm>
-0.238033

>  <SCORE.RESTR>
0

>  <SCORE.RESTR.CAVITY>
0

>  <SCORE.RESTR.norm>
0

>  <SCORE.SYSTEM>
0

>  <SCORE.SYSTEM.CONST>
0

>  <SCORE.SYSTEM.DIHEDRAL>
0

>  <SCORE.SYSTEM.SOLV>
0

>  <SCORE.SYSTEM.norm>
0

>  <SCORE.heavy>
26

>  <SCORE.norm>
-0.70431

>  <RMSD>
8.680

$$$$
ligand
 OpenBabel11021811423D
libRbt.so/2013.1/901 2013/11/27
 26 27  0  0  0  0  0  0  0  0999 V2000
   -3.7632  -21.1888 -101.7968 C   0  0  0  0  0  0  0  0  0  0  0  0
   -1.5483  -14.7137  -96.2833 C   0  0  0  0  0  0  0  0  0  0  0  0
   -0.2430   -9.7600  -96.8079 P   0  0  2  0  0  0  0  0  0  0  0  0
    0.6983   -7.7907  -98.5127 P   0  0  2  0  0  0  0  0  0  0  0  0
   -2.4031  -17.3830  -97.7309 C   0  0  0  0  0  0  0  0  0  0  0  0
   -4.0306  -18.7690  -98.9921 C   0  0  0  0  0  0  0  0  0  0  0  0
   -2.7060  -18.4017  -98.7936 C   0  0  0  0  0  0  0  0  0  0  0  0
   -1.7225  -18.9503  -99.6218 C   0  0  0  0  0  0  0  0  0  0  0  0
   -0.4233  -18.6634  -99.5342 N   0  0  0  0  0  0  0  0  0  0  0  0
   -2.0925  -19.8476 -100.5900 N   0  0  0  0  0  0  0  0  0  0  0  0
   -3.4018  -20.2047 -100.7487 C   0  0  0  0  0  0  0  0  0  0  0  0
   -4.3803  -19.6770  -99.9684 N   0  0  0  0  0  0  0  0  0  0  0  0
   -0.3978   -8.8295  -95.6212 O   0  5  0  0  0  0  0  0  0  0  0  0
    0.7959   -6.8373  -97.3431 O   0  0  0  0  0  0  0  0  0  0  0  0
   -4.1574  -14.1814  -99.1594 S   0  0  0  0  0  0  0  0  0  0  0  0
   -3.7672  -15.7576  -99.0203 C   0  0  0  0  0  0  0  0  0  0  0  0
    1.0801  -10.4941  -96.6072 O   0  0  0  0  0  0  0  0  0  0  0  0
    0.2424   -7.0874  -99.7749 O   0  5  0  0  0  0  0  0  0  0  0  0
   -2.8424  -16.0417  -98.0332 N   0  0  0  0  0  0  0  0  0  0  0  0
   -0.4175   -8.8668  -98.1413 O   0  0  0  0  0  0  0  0  0  0  0  0
    2.0567   -8.4296  -98.7186 O   0  0  0  0  0  0  0  0  0  0  0  0
   -2.4935  -14.8703  -97.4075 C   0  0  1  0  0  0  0  0  0  0  0  0
   -3.1791  -13.7786  -97.9630 C   0  0  2  0  0  0  0  0  0  0  0  0
   -3.2199  -12.2952  -97.6905 C   0  0  0  0  0  0  0  0  0  0  0  0
   -1.8554  -11.6449  -97.9422 C   0  0  0  0  0  0  0  0  0  0  0  0
   -1.6488  -10.5992  -97.0005 O   0  0  0  0  0  0  0  0  0  0  0  0
  1 11  1  0  0  0  0
  3 13  1  1  0  0  0
  3 17  2  0  0  0  0
  3 20  1  0  0  0  0
  3 26  1  0  0  0  0
  4 14  1  1  0  0  0
  4 18  1  0  0  0  0
  4 21  2  0  0  0  0
  4 20  1  0  0  0  0
  5 19  1  0  0  0  0
  5  7  1  0  0  0  0
  6  7  2  0  0  0  0
  6 12  1  0  0  0  0
  7  8  1  0  0  0  0
  8  9  1  0  0  0  0
  8 10  2  0  0  0  0
 10 11  1  0  0  0  0
 11 12  2  0  0  0  0
 15 23  1  0  0  0  0
 15 16  1  0  0  0  0
 16 19  1  0  0  0  0
 19 22  1  0  0  0  0
 22  2  1  1  0  0  0
 22 23  1  0  0  0  0
 23 24  1  1  0  0  0
 24 25  1  0  0  0  0
 25 26  1  0  0  0  0
M  CHG  2  13  -1  18  -1
M  END
>  <CHROM.1>
68.46776288,16.64008370,-70.02881917,-58.20091232,-117.20041005,-144.76660339
172.57874710,-174.73673898,-1.59903023,-13.35486312,-98.37829728,-1.93543432
0.54216000,0.38580054

>  <Name>
ligand

>  <RI>
0

>  <Rbt.Current_Directory>
/home/itssahil/PROJECTS/Mol_Feturizer/New_Systems/rnas/2CKY

>  <Rbt.Executable>
rbdock ($Id: //depot/dev/client3/rdock/2013.1/src/exe/rbdock.cxx#4 $)

>  <Rbt.Library>
libRbt.so (2013.1, Build901 2013/11/27)

>  <Rbt.Parameter_File>
/export/apps/rDock/src/rDock_2013.1_src/data/scripts/dock_solv.prm

>  <Rbt.Receptor>
prm/pocket_docking_8.prm

>  <SCORE>
-19.8788

>  <SCORE.INTER>
-14.7384

>  <SCORE.INTER.CONST>
1

>  <SCORE.INTER.POLAR>
0

>  <SCORE.INTER.ROT>
8

>  <SCORE.INTER.SOLV>
10.8181

>  <SCORE.INTER.VDW>
-22.365

>  <SCORE.INTER.norm>
-0.566862

>  <SCORE.INTRA>
-5.14034

>  <SCORE.INTRA.DIHEDRAL>
-8.01715

>  <SCORE.INTRA.DIHEDRAL.0>
16.4846

>  <SCORE.INTRA.POLAR>
0

>  <SCORE.INTRA.POLAR.0>
0

>  <SCORE.INTRA.REPUL>
0

>  <SCORE.INTRA.REPUL.0>
0

>  <SCORE.INTRA.SOLV>
-0.0656079

>  <SCORE.INTRA.SOLV.lig_0>
-82.6983

>  <SCORE.INTRA.VDW>
-1.09896

>  <SCORE.INTRA.VDW.0>
-2.11466

>  <SCORE.INTRA.norm>
-0.197705

>  <SCORE.RESTR>
0

>  <SCORE.RESTR.CAVITY>
0

>  <SCORE.RESTR.norm>
0

>  <SCORE.SYSTEM>
0

>  <SCORE.SYSTEM.CONST>
0

>  <SCORE.SYSTEM.DIHEDRAL>
0

>  <SCORE.SYSTEM.SOLV>
0

>  <SCORE.SYSTEM.norm>
0

>  <SCORE.heavy>
26

>  <SCORE.norm>
-0.764568

>  <RMSD>
8.701

$$$$
ligand
 OpenBabel11021811423D
libRbt.so/2013.1/901 2013/11/27
 26 27  0  0  0  0  0  0  0  0999 V2000
   -4.3909  -19.1280  -98.7612 C   0  0  0  0  0  0  0  0  0  0  0  0
    0.1693  -11.8202  -99.1211 C   0  0  0  0  0  0  0  0  0  0  0  0
    0.1999  -11.9260  -93.3975 P   0  0  2  0  0  0  0  0  0  0  0  0
   -0.0571  -14.4815  -94.4339 P   0  0  2  0  0  0  0  0  0  0  0  0
   -1.8176  -14.1374  -99.9173 C   0  0  0  0  0  0  0  0  0  0  0  0
   -3.8209  -15.5198  -99.4313 C   0  0  0  0  0  0  0  0  0  0  0  0
   -2.4425  -15.4650  -99.5923 C   0  0  0  0  0  0  0  0  0  0  0  0
   -1.7050  -16.6490  -99.4999 C   0  0  0  0  0  0  0  0  0  0  0  0
   -0.3820  -16.7215  -99.6490 N   0  0  0  0  0  0  0  0  0  0  0  0
   -2.3614  -17.8229  -99.2343 N   0  0  0  0  0  0  0  0  0  0  0  0
   -3.7167  -17.8424  -99.0613 C   0  0  0  0  0  0  0  0  0  0  0  0
   -4.4605  -16.7103  -99.1597 N   0  0  0  0  0  0  0  0  0  0  0  0
    1.3445  -10.9820  -93.0863 O   0  5  0  0  0  0  0  0  0  0  0  0
    0.7678  -15.4303  -95.2740 O   0  0  0  0  0  0  0  0  0  0  0  0
   -3.1522  -11.8332  -97.0401 S   0  0  0  0  0  0  0  0  0  0  0  0
   -3.1524  -13.0423  -98.1328 C   0  0  0  0  0  0  0  0  0  0  0  0
   -0.4769  -12.2333  -92.0643 O   0  0  0  0  0  0  0  0  0  0  0  0
   -1.3364  -14.0753  -95.1369 O   0  5  0  0  0  0  0  0  0  0  0  0
   -2.0200  -13.1116  -98.9222 N   0  0  0  0  0  0  0  0  0  0  0  0
    0.8139  -13.1611  -94.2362 O   0  0  0  0  0  0  0  0  0  0  0  0
   -0.3653  -15.1608  -93.1151 O   0  0  0  0  0  0  0  0  0  0  0  0
   -1.1637  -12.1042  -98.5518 C   0  0  1  0  0  0  0  0  0  0  0  0
   -1.7059  -11.3411  -97.5057 C   0  0  2  0  0  0  0  0  0  0  0  0
   -1.2386  -10.1552  -96.6984 C   0  0  0  0  0  0  0  0  0  0  0  0
   -0.1181  -10.5477  -95.7295 C   0  0  0  0  0  0  0  0  0  0  0  0
   -0.6647  -11.3019  -94.6547 O   0  0  0  0  0  0  0  0  0  0  0  0
  1 11  1  0  0  0  0
  3 13  1  1  0  0  0
  3 17  2  0  0  0  0
  3 20  1  0  0  0  0
  3 26  1  0  0  0  0
  4 14  1  6  0  0  0
  4 18  1  0  0  0  0
  4 21  2  0  0  0  0
  4 20  1  0  0  0  0
  5 19  1  0  0  0  0
  5  7  1  0  0  0  0
  6  7  2  0  0  0  0
  6 12  1  0  0  0  0
  7  8  1  0  0  0  0
  8  9  1  0  0  0  0
  8 10  2  0  0  0  0
 10 11  1  0  0  0  0
 11 12  2  0  0  0  0
 15 23  1  0  0  0  0
 15 16  1  0  0  0  0
 16 19  1  0  0  0  0
 19 22  1  0  0  0  0
 22  2  1  1  0  0  0
 22 23  1  0  0  0  0
 23 24  1  1  0  0  0
 24 25  1  0  0  0  0
 25 26  1  0  0  0  0
M  CHG  2  13  -1  18  -1
M  END
>  <CHROM.1>
166.26710618,-31.54139788,60.83180785,178.86333791,107.84771106,-73.30883358
179.64610500,33.40144943,-1.30344246,-13.75950811,-96.57816176,-2.68793066
-1.11425434,-0.20518373

>  <Name>
ligand

>  <RI>
0

>  <Rbt.Current_Directory>
/home/itssahil/PROJECTS/Mol_Feturizer/New_Systems/rnas/2CKY

>  <Rbt.Executable>
rbdock ($Id: //depot/dev/client3/rdock/2013.1/src/exe/rbdock.cxx#4 $)

>  <Rbt.Library>
libRbt.so (2013.1, Build901 2013/11/27)

>  <Rbt.Parameter_File>
/export/apps/rDock/src/rDock_2013.1_src/data/scripts/dock_solv.prm

>  <Rbt.Receptor>
prm/pocket_docking_8.prm

>  <SCORE>
-19.5823

>  <SCORE.INTER>
-13.3167

>  <SCORE.INTER.CONST>
1

>  <SCORE.INTER.POLAR>
0

>  <SCORE.INTER.ROT>
8

>  <SCORE.INTER.SOLV>
12.7052

>  <SCORE.INTER.VDW>
-22.0462

>  <SCORE.INTER.norm>
-0.512179

>  <SCORE.INTRA>
-6.26559

>  <SCORE.INTRA.DIHEDRAL>
-9.96381

>  <SCORE.INTRA.DIHEDRAL.0>
16.4846

>  <SCORE.INTRA.POLAR>
0

>  <SCORE.INTRA.POLAR.0>
0

>  <SCORE.INTRA.REPUL>
0

>  <SCORE.INTRA.REPUL.0>
0

>  <SCORE.INTRA.SOLV>
1.88503

>  <SCORE.INTRA.SOLV.lig_0>
-82.6983

>  <SCORE.INTRA.VDW>
-2.2262

>  <SCORE.INTRA.VDW.0>
-2.11466

>  <SCORE.INTRA.norm>
-0.240984

>  <SCORE.RESTR>
0

>  <SCORE.RESTR.CAVITY>
0

>  <SCORE.RESTR.norm>
0

>  <SCORE.SYSTEM>
0

>  <SCORE.SYSTEM.CONST>
0

>  <SCORE.SYSTEM.DIHEDRAL>
0

>  <SCORE.SYSTEM.SOLV>
0

>  <SCORE.SYSTEM.norm>
0

>  <SCORE.heavy>
26

>  <SCORE.norm>
-0.753164

>  <RMSD>
8.718

$$$$
ligand
 OpenBabel11021811423D
libRbt.so/2013.1/901 2013/11/27
 26 27  0  0  0  0  0  0  0  0999 V2000
    3.2927  -11.8890 -100.4534 C   0  0  0  0  0  0  0  0  0  0  0  0
   -2.0919  -17.2440  -98.0660 C   0  0  0  0  0  0  0  0  0  0  0  0
    1.8951  -18.0446  -94.5668 P   0  0  2  0  0  0  0  0  0  0  0  0
    3.5802  -16.4767  -96.1072 P   0  0  2  0  0  0  0  0  0  0  0  0
   -0.6715  -16.0274 -100.6065 C   0  0  0  0  0  0  0  0  0  0  0  0
    1.4909  -15.0247 -101.2985 C   0  0  0  0  0  0  0  0  0  0  0  0
    0.3491  -14.9281 -100.5136 C   0  0  0  0  0  0  0  0  0  0  0  0
    0.1725  -13.7934  -99.7165 C   0  0  0  0  0  0  0  0  0  0  0  0
   -0.8865  -13.5848  -98.9337 N   0  0  0  0  0  0  0  0  0  0  0  0
    1.1392  -12.8214  -99.7189 N   0  0  0  0  0  0  0  0  0  0  0  0
    2.2616  -12.9535 -100.4870 C   0  0  0  0  0  0  0  0  0  0  0  0
    2.4532  -14.0379 -101.2820 N   0  0  0  0  0  0  0  0  0  0  0  0
    1.2742  -16.6761  -94.3674 O   0  5  0  0  0  0  0  0  0  0  0  0
    3.6021  -15.3493  -95.0998 O   0  0  0  0  0  0  0  0  0  0  0  0
    0.9924  -19.3264  -99.2963 S   0  0  0  0  0  0  0  0  0  0  0  0
    0.7521  -18.0313 -100.2560 C   0  0  0  0  0  0  0  0  0  0  0  0
    1.8870  -18.7224  -93.1992 O   0  0  0  0  0  0  0  0  0  0  0  0
    2.4434  -16.3241  -97.0973 O   0  5  0  0  0  0  0  0  0  0  0  0
   -0.3240  -17.2391  -99.9032 N   0  0  0  0  0  0  0  0  0  0  0  0
    3.3201  -17.8215  -95.2918 O   0  0  0  0  0  0  0  0  0  0  0  0
    4.9142  -16.4973  -96.8253 O   0  0  0  0  0  0  0  0  0  0  0  0
   -0.9199  -17.7776  -98.7895 C   0  0  1  0  0  0  0  0  0  0  0  0
   -0.2532  -18.9409  -98.3740 C   0  0  2  0  0  0  0  0  0  0  0  0
   -0.4292  -19.9239  -97.2429 C   0  0  0  0  0  0  0  0  0  0  0  0
   -0.1558  -19.2663  -95.8860 C   0  0  0  0  0  0  0  0  0  0  0  0
    1.1737  -18.7614  -95.8643 O   0  0  0  0  0  0  0  0  0  0  0  0
  1 11  1  0  0  0  0
  3 13  1  1  0  0  0
  3 17  2  0  0  0  0
  3 20  1  0  0  0  0
  3 26  1  0  0  0  0
  4 14  1  1  0  0  0
  4 18  1  0  0  0  0
  4 21  2  0  0  0  0
  4 20  1  0  0  0  0
  5 19  1  0  0  0  0
  5  7  1  0  0  0  0
  6  7  2  0  0  0  0
  6 12  1  0  0  0  0
  7  8  1  0  0  0  0
  8  9  1  0  0  0  0
  8 10  2  0  0  0  0
 10 11  1  0  0  0  0
 11 12  2  0  0  0  0
 15 23  1  0  0  0  0
 15 16  1  0  0  0  0
 16 19  1  0  0  0  0
 19 22  1  0  0  0  0
 22  2  1  1  0  0  0
 22 23  1  0  0  0  0
 23 24  1  1  0  0  0
 24 25  1  0  0  0  0
 25 26  1  0  0  0  0
M  CHG  2  13  -1  18  -1
M  END
>  <CHROM.1>
-21.88295347,-64.92451150,77.02134491,67.00059886,113.27766599,-59.21677000
-176.89199930,-71.76043664,1.38505205,-16.66517586,-97.73661466,-1.72238631
0.76594589,2.33493555

>  <Name>
ligand

>  <RI>
0

>  <Rbt.Current_Directory>
/home/itssahil/PROJECTS/Mol_Feturizer/New_Systems/rnas/2CKY

>  <Rbt.Executable>
rbdock ($Id: //depot/dev/client3/rdock/2013.1/src/exe/rbdock.cxx#4 $)

>  <Rbt.Library>
libRbt.so (2013.1, Build901 2013/11/27)

>  <Rbt.Parameter_File>
/export/apps/rDock/src/rDock_2013.1_src/data/scripts/dock_solv.prm

>  <Rbt.Receptor>
prm/pocket_docking_7.prm

>  <SCORE>
-17.7466

>  <SCORE.INTER>
-11.1586

>  <SCORE.INTER.CONST>
1

>  <SCORE.INTER.POLAR>
0

>  <SCORE.INTER.ROT>
8

>  <SCORE.INTER.SOLV>
13.81

>  <SCORE.INTER.VDW>
-20.9758

>  <SCORE.INTER.norm>
-0.429178

>  <SCORE.INTRA>
-6.58801

>  <SCORE.INTRA.DIHEDRAL>
-10.0998

>  <SCORE.INTRA.DIHEDRAL.0>
16.4846

>  <SCORE.INTRA.POLAR>
0

>  <SCORE.INTRA.POLAR.0>
0

>  <SCORE.INTRA.REPUL>
0

>  <SCORE.INTRA.REPUL.0>
0

>  <SCORE.INTRA.SOLV>
1.78494

>  <SCORE.INTRA.SOLV.lig_0>
-82.6983

>  <SCORE.INTRA.VDW>
-2.43057

>  <SCORE.INTRA.VDW.0>
-2.11466

>  <SCORE.INTRA.norm>
-0.253385

>  <SCORE.RESTR>
0

>  <SCORE.RESTR.CAVITY>
0

>  <SCORE.RESTR.norm>
0

>  <SCORE.SYSTEM>
0

>  <SCORE.SYSTEM.CONST>
0

>  <SCORE.SYSTEM.DIHEDRAL>
0

>  <SCORE.SYSTEM.SOLV>
0

>  <SCORE.SYSTEM.norm>
0

>  <SCORE.heavy>
26

>  <SCORE.norm>
-0.682563

>  <RMSD>
8.778

$$$$
ligand
 OpenBabel11021811423D
libRbt.so/2013.1/901 2013/11/27
 26 27  0  0  0  0  0  0  0  0999 V2000
    4.1557  -10.6651 -100.2088 C   0  0  0  0  0  0  0  0  0  0  0  0
   -0.1840  -12.6474  -94.4823 C   0  0  0  0  0  0  0  0  0  0  0  0
   -2.4775  -16.1583  -98.9630 P   0  0  2  0  0  0  0  0  0  0  0  0
   -3.6106  -18.6564  -99.3451 P   0  0  2  0  0  0  0  0  0  0  0  0
    0.1477   -9.9993  -96.1642 C   0  0  0  0  0  0  0  0  0  0  0  0
    0.8691  -10.4890  -98.4881 C   0  0  0  0  0  0  0  0  0  0  0  0
    1.2365  -10.1870  -97.1832 C   0  0  0  0  0  0  0  0  0  0  0  0
    2.5919  -10.0174  -96.8860 C   0  0  0  0  0  0  0  0  0  0  0  0
    3.0616   -9.7140  -95.6756 N   0  0  0  0  0  0  0  0  0  0  0  0
    3.5169  -10.1735  -97.8857 N   0  0  0  0  0  0  0  0  0  0  0  0
    3.1265  -10.4901  -99.1564 C   0  0  0  0  0  0  0  0  0  0  0  0
    1.8161  -10.6465  -99.4773 N   0  0  0  0  0  0  0  0  0  0  0  0
   -2.8724  -15.4902 -100.2652 O   0  5  0  0  0  0  0  0  0  0  0  0
   -3.5911  -18.3831 -100.8323 O   0  0  0  0  0  0  0  0  0  0  0  0
   -3.0543  -12.0643  -97.0870 S   0  0  0  0  0  0  0  0  0  0  0  0
   -1.9756  -10.8436  -97.1357 C   0  0  0  0  0  0  0  0  0  0  0  0
   -1.0510  -16.6658  -99.1570 O   0  0  0  0  0  0  0  0  0  0  0  0
   -4.8673  -19.3912  -98.9250 O   0  5  0  0  0  0  0  0  0  0  0  0
   -0.9279  -10.9587  -96.2417 N   0  0  0  0  0  0  0  0  0  0  0  0
   -3.6239  -17.2399  -98.6140 O   0  0  0  0  0  0  0  0  0  0  0  0
   -2.3776  -19.4643  -98.9949 O   0  0  0  0  0  0  0  0  0  0  0  0
   -1.0836  -12.1223  -95.5295 C   0  0  1  0  0  0  0  0  0  0  0  0
   -2.2387  -12.8098  -95.9339 C   0  0  2  0  0  0  0  0  0  0  0  0
   -2.8991  -14.1080  -95.5400 C   0  0  0  0  0  0  0  0  0  0  0  0
   -2.3784  -15.2763  -96.3840 C   0  0  0  0  0  0  0  0  0  0  0  0
   -2.8450  -15.1391  -97.7205 O   0  0  0  0  0  0  0  0  0  0  0  0
  1 11  1  0  0  0  0
  3 13  1  6  0  0  0
  3 17  2  0  0  0  0
  3 20  1  0  0  0  0
  3 26  1  0  0  0  0
  4 14  1  6  0  0  0
  4 18  1  0  0  0  0
  4 21  2  0  0  0  0
  4 20  1  0  0  0  0
  5 19  1  0  0  0  0
  5  7  1  0  0  0  0
  6  7  2  0  0  0  0
  6 12  1  0  0  0  0
  7  8  1  0  0  0  0
  8  9  1  0  0  0  0
  8 10  2  0  0  0  0
 10 11  1  0  0  0  0
 11 12  2  0  0  0  0
 15 23  1  0  0  0  0
 15 16  1  0  0  0  0
 16 19  1  0  0  0  0
 19 22  1  0  0  0  0
 22  2  1  6  0  0  0
 22 23  1  0  0  0  0
 23 24  1  6  0  0  0
 24 25  1  0  0  0  0
 25 26  1  0  0  0  0
M  CHG  2  13  -1  18  -1
M  END
>  <CHROM.1>
79.95118556,-81.85588488,42.37577450,-54.41201207,89.89892829,-69.64659424
178.04649629,-166.06701275,-1.20369031,-13.91941776,-97.92673064,-0.83548954
-0.60621591,-2.43610477

>  <Name>
ligand

>  <RI>
0

>  <Rbt.Current_Directory>
/home/itssahil/PROJECTS/Mol_Feturizer/New_Systems/rnas/2CKY

>  <Rbt.Executable>
rbdock ($Id: //depot/dev/client3/rdock/2013.1/src/exe/rbdock.cxx#4 $)

>  <Rbt.Library>
libRbt.so (2013.1, Build901 2013/11/27)

>  <Rbt.Parameter_File>
/export/apps/rDock/src/rDock_2013.1_src/data/scripts/dock_solv.prm

>  <Rbt.Receptor>
prm/pocket_docking_8.prm

>  <SCORE>
-20.15

>  <SCORE.INTER>
-13.0348

>  <SCORE.INTER.CONST>
1

>  <SCORE.INTER.POLAR>
0

>  <SCORE.INTER.ROT>
8

>  <SCORE.INTER.SOLV>
13.2819

>  <SCORE.INTER.VDW>
-22.0505

>  <SCORE.INTER.norm>
-0.50134

>  <SCORE.INTRA>
-7.1152

>  <SCORE.INTRA.DIHEDRAL>
-10.4374

>  <SCORE.INTRA.DIHEDRAL.0>
16.4846

>  <SCORE.INTRA.POLAR>
0

>  <SCORE.INTRA.POLAR.0>
0

>  <SCORE.INTRA.REPUL>
0

>  <SCORE.INTRA.REPUL.0>
0

>  <SCORE.INTRA.SOLV>
-0.116937

>  <SCORE.INTRA.SOLV.lig_0>
-82.6983

>  <SCORE.INTRA.VDW>
-1.83803

>  <SCORE.INTRA.VDW.0>
-2.11466

>  <SCORE.INTRA.norm>
-0.273662

>  <SCORE.RESTR>
0

>  <SCORE.RESTR.CAVITY>
0

>  <SCORE.RESTR.norm>
0

>  <SCORE.SYSTEM>
0

>  <SCORE.SYSTEM.CONST>
0

>  <SCORE.SYSTEM.DIHEDRAL>
0

>  <SCORE.SYSTEM.SOLV>
0

>  <SCORE.SYSTEM.norm>
0

>  <SCORE.heavy>
26

>  <SCORE.norm>
-0.775002

>  <RMSD>
8.784

$$$$
ligand
 OpenBabel11021811423D
libRbt.so/2013.1/901 2013/11/27
 26 27  0  0  0  0  0  0  0  0999 V2000
    0.7697  -16.1877 -101.3497 C   0  0  0  0  0  0  0  0  0  0  0  0
    0.4213  -11.2671  -96.8113 C   0  0  0  0  0  0  0  0  0  0  0  0
    0.6847  -15.6093  -93.6379 P   0  0  2  0  0  0  0  0  0  0  0  0
    3.0857  -16.1957  -94.8876 P   0  0  2  0  0  0  0  0  0  0  0  0
   -1.9765  -11.8660  -98.7716 C   0  0  0  0  0  0  0  0  0  0  0  0
   -0.0773  -12.8088 -100.0617 C   0  0  0  0  0  0  0  0  0  0  0  0
   -1.3073  -13.0257  -99.4543 C   0  0  0  0  0  0  0  0  0  0  0  0
   -1.8421  -14.3173  -99.4560 C   0  0  0  0  0  0  0  0  0  0  0  0
   -3.0055  -14.6476  -98.8946 N   0  0  0  0  0  0  0  0  0  0  0  0
   -1.1466  -15.3247 -100.0732 N   0  0  0  0  0  0  0  0  0  0  0  0
    0.0525  -15.0768 -100.6797 C   0  0  0  0  0  0  0  0  0  0  0  0
    0.6031  -13.8352 -100.6812 N   0  0  0  0  0  0  0  0  0  0  0  0
    1.3701  -15.6253  -92.2859 O   0  5  0  0  0  0  0  0  0  0  0  0
    2.5716  -17.5881  -95.1769 O   0  0  0  0  0  0  0  0  0  0  0  0
   -2.8662  -12.3768  -94.9880 S   0  0  0  0  0  0  0  0  0  0  0  0
   -3.0918  -12.3246  -96.6012 C   0  0  0  0  0  0  0  0  0  0  0  0
   -0.0425  -16.9452  -93.7657 O   0  0  0  0  0  0  0  0  0  0  0  0
    3.8430  -16.1370  -93.5766 O   0  5  0  0  0  0  0  0  0  0  0  0
   -1.9846  -11.9330  -97.3298 N   0  0  0  0  0  0  0  0  0  0  0  0
    1.8094  -15.2522  -94.7395 O   0  0  0  0  0  0  0  0  0  0  0  0
    3.9757  -15.7701  -96.0376 O   0  0  0  0  0  0  0  0  0  0  0  0
   -0.9498  -11.6899  -96.4606 C   0  0  1  0  0  0  0  0  0  0  0  0
   -1.3440  -11.9153  -95.1323 C   0  0  2  0  0  0  0  0  0  0  0  0
   -0.6612  -11.8330  -93.7894 C   0  0  0  0  0  0  0  0  0  0  0  0
    0.4374  -12.8931  -93.6572 C   0  0  0  0  0  0  0  0  0  0  0  0
   -0.1361  -14.1878  -93.7906 O   0  0  0  0  0  0  0  0  0  0  0  0
  1 11  1  0  0  0  0
  3 13  1  1  0  0  0
  3 17  2  0  0  0  0
  3 20  1  0  0  0  0
  3 26  1  0  0  0  0
  4 14  1  6  0  0  0
  4 18  1  0  0  0  0
  4 21  2  0  0  0  0
  4 20  1  0  0  0  0
  5 19  1  0  0  0  0
  5  7  1  0  0  0  0
  6  7  2  0  0  0  0
  6 12  1  0  0  0  0
  7  8  1  0  0  0  0
  8  9  1  0  0  0  0
  8 10  2  0  0  0  0
 10 11  1  0  0  0  0
 11 12  2  0  0  0  0
 15 23  1  0  0  0  0
 15 16  1  0  0  0  0
 16 19  1  0  0  0  0
 19 22  1  0  0  0  0
 22  2  1  6  0  0  0
 22 23  1  0  0  0  0
 23 24  1  6  0  0  0
 24 25  1  0  0  0  0
 25 26  1  0  0  0  0
M  CHG  2  13  -1  18  -1
M  END
>  <CHROM.1>
58.86201097,-101.26787209,-108.24722845,57.14118469,113.26065945,-60.21028802
-176.81362119,55.56055051,0.10967985,-14.26788766,-96.23347652,-2.36590704
-0.74427333,1.44195826

>  <Name>
ligand

>  <RI>
0

>  <Rbt.Current_Directory>
/home/itssahil/PROJECTS/Mol_Feturizer/New_Systems/rnas/2CKY

>  <Rbt.Executable>
rbdock ($Id: //depot/dev/client3/rdock/2013.1/src/exe/rbdock.cxx#4 $)

>  <Rbt.Library>
libRbt.so (2013.1, Build901 2013/11/27)

>  <Rbt.Parameter_File>
/export/apps/rDock/src/rDock_2013.1_src/data/scripts/dock_solv.prm

>  <Rbt.Receptor>
prm/pocket_docking_5.prm

>  <SCORE>
-17.0565

>  <SCORE.INTER>
-9.82461

>  <SCORE.INTER.CONST>
1

>  <SCORE.INTER.POLAR>
0

>  <SCORE.INTER.ROT>
8

>  <SCORE.INTER.SOLV>
8.26208

>  <SCORE.INTER.VDW>
-18.2371

>  <SCORE.INTER.norm>
-0.37787

>  <SCORE.INTRA>
-7.25655

>  <SCORE.INTRA.DIHEDRAL>
-11.892

>  <SCORE.INTRA.DIHEDRAL.0>
16.4846

>  <SCORE.INTRA.POLAR>
0

>  <SCORE.INTRA.POLAR.0>
0

>  <SCORE.INTRA.REPUL>
0

>  <SCORE.INTRA.REPUL.0>
0

>  <SCORE.INTRA.SOLV>
1.43741

>  <SCORE.INTRA.SOLV.lig_0>
-82.6983

>  <SCORE.INTRA.VDW>
-2.02925

>  <SCORE.INTRA.VDW.0>
-2.11466

>  <SCORE.INTRA.norm>
-0.279098

>  <SCORE.RESTR>
0.0247002

>  <SCORE.RESTR.CAVITY>
0.0247002

>  <SCORE.RESTR.norm>
0.000950009

>  <SCORE.SYSTEM>
0

>  <SCORE.SYSTEM.CONST>
0

>  <SCORE.SYSTEM.DIHEDRAL>
0

>  <SCORE.SYSTEM.SOLV>
0

>  <SCORE.SYSTEM.norm>
0

>  <SCORE.heavy>
26

>  <SCORE.norm>
-0.656018

>  <RMSD>
8.795

$$$$
ligand
 OpenBabel11021811423D
libRbt.so/2013.1/901 2013/11/27
 26 27  0  0  0  0  0  0  0  0999 V2000
    2.4329  -18.9184 -101.2631 C   0  0  0  0  0  0  0  0  0  0  0  0
   -3.8948  -13.8437  -98.4940 C   0  0  0  0  0  0  0  0  0  0  0  0
   -0.5256  -11.9634  -94.8673 P   0  0  2  0  0  0  0  0  0  0  0  0
    1.9667  -11.9083  -96.0738 P   0  0  2  0  0  0  0  0  0  0  0  0
   -2.0624  -15.4427 -100.5032 C   0  0  0  0  0  0  0  0  0  0  0  0
    0.0630  -16.0806 -101.6150 C   0  0  0  0  0  0  0  0  0  0  0  0
   -0.9156  -16.3976 -100.6819 C   0  0  0  0  0  0  0  0  0  0  0  0
   -0.7656  -17.5562  -99.9142 C   0  0  0  0  0  0  0  0  0  0  0  0
   -1.6312  -17.9546  -98.9815 N   0  0  0  0  0  0  0  0  0  0  0  0
    0.3308  -18.3531 -100.1193 N   0  0  0  0  0  0  0  0  0  0  0  0
    1.2674  -18.0254 -101.0588 C   0  0  0  0  0  0  0  0  0  0  0  0
    1.1554  -16.8987 -101.8089 N   0  0  0  0  0  0  0  0  0  0  0  0
   -0.6089  -10.4536  -94.7594 O   0  5  0  0  0  0  0  0  0  0  0  0
    2.5334  -12.5318  -94.8182 O   0  0  0  0  0  0  0  0  0  0  0  0
   -0.3930  -12.1879  -99.0933 S   0  0  0  0  0  0  0  0  0  0  0  0
   -0.5325  -13.5668  -99.9509 C   0  0  0  0  0  0  0  0  0  0  0  0
   -0.0932  -12.4681  -93.4932 O   0  0  0  0  0  0  0  0  0  0  0  0
    2.0455  -10.3957  -96.0354 O   0  5  0  0  0  0  0  0  0  0  0  0
   -1.7360  -14.2281  -99.7951 N   0  0  0  0  0  0  0  0  0  0  0  0
    0.4227  -12.3005  -96.1295 O   0  0  0  0  0  0  0  0  0  0  0  0
    2.7338  -12.4526  -97.2617 O   0  0  0  0  0  0  0  0  0  0  0  0
   -2.5229  -13.5104  -98.9284 C   0  0  1  0  0  0  0  0  0  0  0  0
   -1.8615  -12.3533  -98.4876 C   0  0  2  0  0  0  0  0  0  0  0  0
   -2.2146  -11.2073  -97.5719 C   0  0  0  0  0  0  0  0  0  0  0  0
   -2.8503  -11.7093  -96.2710 C   0  0  0  0  0  0  0  0  0  0  0  0
   -1.9131  -12.5144  -95.5665 O   0  0  0  0  0  0  0  0  0  0  0  0
  1 11  1  0  0  0  0
  3 13  1  1  0  0  0
  3 17  2  0  0  0  0
  3 20  1  0  0  0  0
  3 26  1  0  0  0  0
  4 14  1  1  0  0  0
  4 18  1  0  0  0  0
  4 21  2  0  0  0  0
  4 20  1  0  0  0  0
  5 19  1  0  0  0  0
  5  7  1  0  0  0  0
  6  7  2  0  0  0  0
  6 12  1  0  0  0  0
  7  8  1  0  0  0  0
  8  9  1  0  0  0  0
  8 10  2  0  0  0  0
 10 11  1  0  0  0  0
 11 12  2  0  0  0  0
 15 23  1  0  0  0  0
 15 16  1  0  0  0  0
 16 19  1  0  0  0  0
 19 22  1  0  0  0  0
 22  2  1  6  0  0  0
 22 23  1  0  0  0  0
 23 24  1  6  0  0  0
 24 25  1  0  0  0  0
 25 26  1  0  0  0  0
M  CHG  2  13  -1  18  -1
M  END
>  <CHROM.1>
65.94277500,37.64223987,-73.99969472,54.39955557,-134.18151739,62.59611461
67.91482261,15.61285554,-0.23337099,-13.69058377,-97.88154622,-1.58805575
-0.22506658,0.75546178

>  <Name>
ligand

>  <RI>
0

>  <Rbt.Current_Directory>
/home/itssahil/PROJECTS/Mol_Feturizer/New_Systems/rnas/2CKY

>  <Rbt.Executable>
rbdock ($Id: //depot/dev/client3/rdock/2013.1/src/exe/rbdock.cxx#4 $)

>  <Rbt.Library>
libRbt.so (2013.1, Build901 2013/11/27)

>  <Rbt.Parameter_File>
/export/apps/rDock/src/rDock_2013.1_src/data/scripts/dock_solv.prm

>  <Rbt.Receptor>
prm/pocket_docking_6.prm

>  <SCORE>
-16.5134

>  <SCORE.INTER>
-9.95001

>  <SCORE.INTER.CONST>
1

>  <SCORE.INTER.POLAR>
0

>  <SCORE.INTER.ROT>
8

>  <SCORE.INTER.SOLV>
8.48664

>  <SCORE.INTER.VDW>
-18.3956

>  <SCORE.INTER.norm>
-0.382693

>  <SCORE.INTRA>
-6.56336

>  <SCORE.INTRA.DIHEDRAL>
-9.79775

>  <SCORE.INTRA.DIHEDRAL.0>
16.4846

>  <SCORE.INTRA.POLAR>
0

>  <SCORE.INTRA.POLAR.0>
0

>  <SCORE.INTRA.REPUL>
0

>  <SCORE.INTRA.REPUL.0>
0

>  <SCORE.INTRA.SOLV>
1.61757

>  <SCORE.INTRA.SOLV.lig_0>
-82.6983

>  <SCORE.INTRA.VDW>
-2.47328

>  <SCORE.INTRA.VDW.0>
-2.11466

>  <SCORE.INTRA.norm>
-0.252437

>  <SCORE.RESTR>
0

>  <SCORE.RESTR.CAVITY>
0

>  <SCORE.RESTR.norm>
0

>  <SCORE.SYSTEM>
0

>  <SCORE.SYSTEM.CONST>
0

>  <SCORE.SYSTEM.DIHEDRAL>
0

>  <SCORE.SYSTEM.SOLV>
0

>  <SCORE.SYSTEM.norm>
0

>  <SCORE.heavy>
26

>  <SCORE.norm>
-0.63513

>  <RMSD>
8.797

$$$$
ligand
 OpenBabel11021811423D
libRbt.so/2013.1/901 2013/11/27
 26 27  0  0  0  0  0  0  0  0999 V2000
    3.4576  -11.9247 -100.6046 C   0  0  0  0  0  0  0  0  0  0  0  0
   -1.1010  -17.0813  -99.6476 C   0  0  0  0  0  0  0  0  0  0  0  0
    1.6463  -17.4764  -95.5517 P   0  0  2  0  0  0  0  0  0  0  0  0
    1.9165  -18.4363  -92.9678 P   0  0  2  0  0  0  0  0  0  0  0  0
   -1.6660  -14.0233  -99.1177 C   0  0  0  0  0  0  0  0  0  0  0  0
    0.4405  -14.0834 -100.4291 C   0  0  0  0  0  0  0  0  0  0  0  0
   -0.3195  -13.4476  -99.4559 C   0  0  0  0  0  0  0  0  0  0  0  0
    0.1728  -12.2754  -98.8746 C   0  0  0  0  0  0  0  0  0  0  0  0
   -0.4719  -11.5731  -97.9424 N   0  0  0  0  0  0  0  0  0  0  0  0
    1.3973  -11.8009  -99.2680 N   0  0  0  0  0  0  0  0  0  0  0  0
    2.1312  -12.4593 -100.2142 C   0  0  0  0  0  0  0  0  0  0  0  0
    1.6718  -13.5919 -100.8064 N   0  0  0  0  0  0  0  0  0  0  0  0
    2.5462  -17.2190  -96.7441 O   0  5  0  0  0  0  0  0  0  0  0  0
    3.0566  -18.6215  -91.9919 O   0  0  0  0  0  0  0  0  0  0  0  0
   -1.8836  -16.2493  -95.8981 S   0  0  0  0  0  0  0  0  0  0  0  0
   -1.9171  -14.8971  -96.8073 C   0  0  0  0  0  0  0  0  0  0  0  0
    0.9257  -16.1613  -95.2667 O   0  0  0  0  0  0  0  0  0  0  0  0
    1.1068  -19.7060  -93.1342 O   0  5  0  0  0  0  0  0  0  0  0  0
   -1.6428  -15.0919  -98.1478 N   0  0  0  0  0  0  0  0  0  0  0  0
    2.5685  -18.1019  -94.3836 O   0  0  0  0  0  0  0  0  0  0  0  0
    1.0406  -17.3066  -92.4653 O   0  0  0  0  0  0  0  0  0  0  0  0
   -1.4130  -16.4290  -98.3596 C   0  0  1  0  0  0  0  0  0  0  0  0
   -1.5300  -17.1559  -97.1645 C   0  0  2  0  0  0  0  0  0  0  0  0
   -1.4084  -18.6115  -96.7861 C   0  0  0  0  0  0  0  0  0  0  0  0
    0.0207  -19.1237  -96.9948 C   0  0  0  0  0  0  0  0  0  0  0  0
    0.7929  -18.8590  -95.8301 O   0  0  0  0  0  0  0  0  0  0  0  0
  1 11  1  0  0  0  0
  3 13  1  6  0  0  0
  3 17  2  0  0  0  0
  3 20  1  0  0  0  0
  3 26  1  0  0  0  0
  4 14  1  1  0  0  0
  4 18  1  0  0  0  0
  4 21  2  0  0  0  0
  4 20  1  0  0  0  0
  5 19  1  0  0  0  0
  5  7  1  0  0  0  0
  6  7  2  0  0  0  0
  6 12  1  0  0  0  0
  7  8  1  0  0  0  0
  8  9  1  0  0  0  0
  8 10  2  0  0  0  0
 10 11  1  0  0  0  0
 11 12  2  0  0  0  0
 15 23  1  0  0  0  0
 15 16  1  0  0  0  0
 16 19  1  0  0  0  0
 19 22  1  0  0  0  0
 22  2  1  6  0  0  0
 22 23  1  0  0  0  0
 23 24  1  6  0  0  0
 24 25  1  0  0  0  0
 25 26  1  0  0  0  0
M  CHG  2  13  -1  18  -1
M  END
>  <CHROM.1>
177.82195618,98.55122108,84.58250122,-164.26099914,-115.34355006,86.65562971
-89.11174234,-52.46177797,0.52426308,-16.13882771,-96.69101827,-1.70025903
0.36175631,2.35577301

>  <Name>
ligand

>  <RI>
0

>  <Rbt.Current_Directory>
/home/itssahil/PROJECTS/Mol_Feturizer/New_Systems/rnas/2CKY

>  <Rbt.Executable>
rbdock ($Id: //depot/dev/client3/rdock/2013.1/src/exe/rbdock.cxx#4 $)

>  <Rbt.Library>
libRbt.so (2013.1, Build901 2013/11/27)

>  <Rbt.Parameter_File>
/export/apps/rDock/src/rDock_2013.1_src/data/scripts/dock_solv.prm

>  <Rbt.Receptor>
prm/pocket_docking_3.prm

>  <SCORE>
-11.4835

>  <SCORE.INTER>
-7.45868

>  <SCORE.INTER.CONST>
1

>  <SCORE.INTER.POLAR>
0

>  <SCORE.INTER.ROT>
8

>  <SCORE.INTER.SOLV>
10.8035

>  <SCORE.INTER.VDW>
-17.5069

>  <SCORE.INTER.norm>
-0.286872

>  <SCORE.INTRA>
-4.05126

>  <SCORE.INTRA.DIHEDRAL>
-5.33463

>  <SCORE.INTRA.DIHEDRAL.0>
16.4846

>  <SCORE.INTRA.POLAR>
0

>  <SCORE.INTRA.POLAR.0>
0

>  <SCORE.INTRA.REPUL>
0

>  <SCORE.INTRA.REPUL.0>
0

>  <SCORE.INTRA.SOLV>
3.42542

>  <SCORE.INTRA.SOLV.lig_0>
-82.6983

>  <SCORE.INTRA.VDW>
-3.09665

>  <SCORE.INTRA.VDW.0>
-2.11466

>  <SCORE.INTRA.norm>
-0.155818

>  <SCORE.RESTR>
0.0264117

>  <SCORE.RESTR.CAVITY>
0.0264117

>  <SCORE.RESTR.norm>
0.00101583

>  <SCORE.SYSTEM>
0

>  <SCORE.SYSTEM.CONST>
0

>  <SCORE.SYSTEM.DIHEDRAL>
0

>  <SCORE.SYSTEM.SOLV>
0

>  <SCORE.SYSTEM.norm>
0

>  <SCORE.heavy>
26

>  <SCORE.norm>
-0.441674

>  <RMSD>
8.817

$$$$
ligand
 OpenBabel11021811423D
libRbt.so/2013.1/901 2013/11/27
 26 27  0  0  0  0  0  0  0  0999 V2000
   -1.0743  -10.3954  -96.6689 C   0  0  0  0  0  0  0  0  0  0  0  0
    2.7930  -13.9069 -100.6699 C   0  0  0  0  0  0  0  0  0  0  0  0
    1.5021  -17.6049  -96.8881 P   0  0  2  0  0  0  0  0  0  0  0  0
    1.5201  -18.0680  -94.1575 P   0  0  2  0  0  0  0  0  0  0  0  0
    4.0440  -11.5597  -98.9737 C   0  0  0  0  0  0  0  0  0  0  0  0
    2.1443  -12.0710  -97.4604 C   0  0  0  0  0  0  0  0  0  0  0  0
    2.6892  -11.2237  -98.4165 C   0  0  0  0  0  0  0  0  0  0  0  0
    1.9838  -10.0723  -98.7781 C   0  0  0  0  0  0  0  0  0  0  0  0
    2.4121   -9.1808  -99.6724 N   0  0  0  0  0  0  0  0  0  0  0  0
    0.7687   -9.8251  -98.1934 N   0  0  0  0  0  0  0  0  0  0  0  0
    0.2489  -10.6876  -97.2698 C   0  0  0  0  0  0  0  0  0  0  0  0
    0.9184  -11.8062  -96.8885 N   0  0  0  0  0  0  0  0  0  0  0  0
    0.6226  -16.3798  -96.7349 O   0  5  0  0  0  0  0  0  0  0  0  0
    0.7862  -19.3760  -94.3501 O   0  0  0  0  0  0  0  0  0  0  0  0
    5.5349  -15.0857  -98.1291 S   0  0  0  0  0  0  0  0  0  0  0  0
    5.3354  -13.4700  -98.0527 C   0  0  0  0  0  0  0  0  0  0  0  0
    0.5817  -18.7414  -97.3252 O   0  0  0  0  0  0  0  0  0  0  0  0
    0.5634  -16.9120  -93.9478 O   0  5  0  0  0  0  0  0  0  0  0  0
    4.3908  -12.9599  -98.9231 N   0  0  0  0  0  0  0  0  0  0  0  0
    2.3190  -17.7822  -95.5070 O   0  0  0  0  0  0  0  0  0  0  0  0
    2.4482  -18.2152  -92.9689 O   0  0  0  0  0  0  0  0  0  0  0  0
    3.8497  -13.9974  -99.6418 C   0  0  1  0  0  0  0  0  0  0  0  0
    4.4212  -15.2230  -99.2655 C   0  0  2  0  0  0  0  0  0  0  0  0
    4.2259  -16.6613  -99.6778 C   0  0  0  0  0  0  0  0  0  0  0  0
    2.8659  -17.1938  -99.2140 C   0  0  0  0  0  0  0  0  0  0  0  0
    2.8176  -17.1937  -97.7926 O   0  0  0  0  0  0  0  0  0  0  0  0
  1 11  1  0  0  0  0
  3 13  1  1  0  0  0
  3 17  2  0  0  0  0
  3 20  1  0  0  0  0
  3 26  1  0  0  0  0
  4 14  1  6  0  0  0
  4 18  1  0  0  0  0
  4 21  2  0  0  0  0
  4 20  1  0  0  0  0
  5 19  1  0  0  0  0
  5  7  1  0  0  0  0
  6  7  2  0  0  0  0
  6 12  1  0  0  0  0
  7  8  1  0  0  0  0
  8  9  1  0  0  0  0
  8 10  2  0  0  0  0
 10 11  1  0  0  0  0
 11 12  2  0  0  0  0
 15 23  1  0  0  0  0
 15 16  1  0  0  0  0
 16 19  1  0  0  0  0
 19 22  1  0  0  0  0
 22  2  1  1  0  0  0
 22 23  1  0  0  0  0
 23 24  1  1  0  0  0
 24 25  1  0  0  0  0
 25 26  1  0  0  0  0
M  CHG  2  13  -1  18  -1
M  END
>  <CHROM.1>
63.11262975,-108.08882433,25.74047191,61.17967683,110.26471425,-63.67784282
176.13516506,-85.44601502,2.34908690,-14.91788263,-97.29518927,1.43964543
0.71702867,-0.36490684

>  <Name>
ligand

>  <RI>
0

>  <Rbt.Current_Directory>
/home/itssahil/PROJECTS/Mol_Feturizer/New_Systems/rnas/2CKY

>  <Rbt.Executable>
rbdock ($Id: //depot/dev/client3/rdock/2013.1/src/exe/rbdock.cxx#4 $)

>  <Rbt.Library>
libRbt.so (2013.1, Build901 2013/11/27)

>  <Rbt.Parameter_File>
/export/apps/rDock/src/rDock_2013.1_src/data/scripts/dock_solv.prm

>  <Rbt.Receptor>
prm/pocket_docking_7.prm

>  <SCORE>
-15.9488

>  <SCORE.INTER>
-8.45832

>  <SCORE.INTER.CONST>
1

>  <SCORE.INTER.POLAR>
0

>  <SCORE.INTER.ROT>
8

>  <SCORE.INTER.SOLV>
8.76759

>  <SCORE.INTER.VDW>
-17.4947

>  <SCORE.INTER.norm>
-0.32532

>  <SCORE.INTRA>
-7.49046

>  <SCORE.INTRA.DIHEDRAL>
-11.2218

>  <SCORE.INTRA.DIHEDRAL.0>
16.4846

>  <SCORE.INTRA.POLAR>
0

>  <SCORE.INTRA.POLAR.0>
0

>  <SCORE.INTRA.REPUL>
0

>  <SCORE.INTRA.REPUL.0>
0

>  <SCORE.INTRA.SOLV>
0.249666

>  <SCORE.INTRA.SOLV.lig_0>
-82.6983

>  <SCORE.INTRA.VDW>
-2.00441

>  <SCORE.INTRA.VDW.0>
-2.11466

>  <SCORE.INTRA.norm>
-0.288094

>  <SCORE.RESTR>
0

>  <SCORE.RESTR.CAVITY>
0

>  <SCORE.RESTR.norm>
0

>  <SCORE.SYSTEM>
0

>  <SCORE.SYSTEM.CONST>
0

>  <SCORE.SYSTEM.DIHEDRAL>
0

>  <SCORE.SYSTEM.SOLV>
0

>  <SCORE.SYSTEM.norm>
0

>  <SCORE.heavy>
26

>  <SCORE.norm>
-0.613414

>  <RMSD>
8.817

$$$$
ligand
 OpenBabel11021811423D
libRbt.so/2013.1/901 2013/11/27
 26 27  0  0  0  0  0  0  0  0999 V2000
    3.8547  -11.5970  -99.5706 C   0  0  0  0  0  0  0  0  0  0  0  0
    0.7870  -17.9872 -100.3130 C   0  0  0  0  0  0  0  0  0  0  0  0
    0.0769  -17.9673  -95.3487 P   0  0  2  0  0  0  0  0  0  0  0  0
    2.6119  -16.9117  -94.9882 P   0  0  2  0  0  0  0  0  0  0  0  0
   -0.2997  -15.1757 -101.2436 C   0  0  0  0  0  0  0  0  0  0  0  0
    1.9752  -14.2018 -101.4350 C   0  0  0  0  0  0  0  0  0  0  0  0
    0.7663  -14.2372 -100.7521 C   0  0  0  0  0  0  0  0  0  0  0  0
    0.5732  -13.3650  -99.6768 C   0  0  0  0  0  0  0  0  0  0  0  0
   -0.5470  -13.2998  -98.9565 N   0  0  0  0  0  0  0  0  0  0  0  0
    1.5883  -12.5166  -99.3175 N   0  0  0  0  0  0  0  0  0  0  0  0
    2.7742  -12.5183  -99.9963 C   0  0  0  0  0  0  0  0  0  0  0  0
    2.9848  -13.3442 -101.0538 N   0  0  0  0  0  0  0  0  0  0  0  0
   -1.3315  -17.4420  -95.5453 O   0  5  0  0  0  0  0  0  0  0  0  0
    3.1891  -15.5792  -94.5666 O   0  0  0  0  0  0  0  0  0  0  0  0
   -2.4985  -16.8826  -98.4831 S   0  0  0  0  0  0  0  0  0  0  0  0
   -2.0190  -15.7423  -99.5442 C   0  0  0  0  0  0  0  0  0  0  0  0
    0.0130  -18.9338  -94.1690 O   0  0  0  0  0  0  0  0  0  0  0  0
    3.2013  -17.3902  -96.2994 O   0  5  0  0  0  0  0  0  0  0  0  0
   -0.8589  -16.0416 -100.2332 N   0  0  0  0  0  0  0  0  0  0  0  0
    1.0516  -16.6865  -95.2251 O   0  0  0  0  0  0  0  0  0  0  0  0
    2.8794  -17.9152  -93.8850 O   0  0  0  0  0  0  0  0  0  0  0  0
   -0.4097  -17.2729  -99.8238 C   0  0  1  0  0  0  0  0  0  0  0  0
   -1.2616  -17.8228  -98.8529 C   0  0  2  0  0  0  0  0  0  0  0  0
   -1.2934  -19.1122  -98.0701 C   0  0  0  0  0  0  0  0  0  0  0  0
    0.1085  -19.5112  -97.5970 C   0  0  0  0  0  0  0  0  0  0  0  0
    0.6585  -18.4621  -96.8097 O   0  0  0  0  0  0  0  0  0  0  0  0
  1 11  1  0  0  0  0
  3 13  1  6  0  0  0
  3 17  2  0  0  0  0
  3 20  1  0  0  0  0
  3 26  1  0  0  0  0
  4 14  1  1  0  0  0
  4 18  1  0  0  0  0
  4 21  2  0  0  0  0
  4 20  1  0  0  0  0
  5 19  1  0  0  0  0
  5  7  1  0  0  0  0
  6  7  2  0  0  0  0
  6 12  1  0  0  0  0
  7  8  1  0  0  0  0
  8  9  1  0  0  0  0
  8 10  2  0  0  0  0
 10 11  1  0  0  0  0
 11 12  2  0  0  0  0
 15 23  1  0  0  0  0
 15 16  1  0  0  0  0
 16 19  1  0  0  0  0
 19 22  1  0  0  0  0
 22  2  1  6  0  0  0
 22 23  1  0  0  0  0
 23 24  1  6  0  0  0
 24 25  1  0  0  0  0
 25 26  1  0  0  0  0
M  CHG  2  13  -1  18  -1
M  END
>  <CHROM.1>
179.11413609,95.14992847,128.52317970,-165.82685175,-139.29209980,57.48456243
65.59836445,-62.53922238,0.66919989,-16.29562848,-97.76650056,-1.48430523
0.62094992,2.23055899

>  <Name>
ligand

>  <RI>
0

>  <Rbt.Current_Directory>
/home/itssahil/PROJECTS/Mol_Feturizer/New_Systems/rnas/2CKY

>  <Rbt.Executable>
rbdock ($Id: //depot/dev/client3/rdock/2013.1/src/exe/rbdock.cxx#4 $)

>  <Rbt.Library>
libRbt.so (2013.1, Build901 2013/11/27)

>  <Rbt.Parameter_File>
/export/apps/rDock/src/rDock_2013.1_src/data/scripts/dock_solv.prm

>  <Rbt.Receptor>
prm/pocket_docking_4.prm

>  <SCORE>
-11.4004

>  <SCORE.INTER>
-5.79441

>  <SCORE.INTER.CONST>
1

>  <SCORE.INTER.POLAR>
0

>  <SCORE.INTER.ROT>
8

>  <SCORE.INTER.SOLV>
15.3441

>  <SCORE.INTER.VDW>
-17.911

>  <SCORE.INTER.norm>
-0.222862

>  <SCORE.INTRA>
-5.61821

>  <SCORE.INTRA.DIHEDRAL>
-11.2132

>  <SCORE.INTRA.DIHEDRAL.0>
16.4846

>  <SCORE.INTRA.POLAR>
0

>  <SCORE.INTRA.POLAR.0>
0

>  <SCORE.INTRA.REPUL>
0

>  <SCORE.INTRA.REPUL.0>
0

>  <SCORE.INTRA.SOLV>
4.40114

>  <SCORE.INTRA.SOLV.lig_0>
-82.6983

>  <SCORE.INTRA.VDW>
-2.21217

>  <SCORE.INTRA.VDW.0>
-2.11466

>  <SCORE.INTRA.norm>
-0.216085

>  <SCORE.RESTR>
0.0122099

>  <SCORE.RESTR.CAVITY>
0.0122099

>  <SCORE.RESTR.norm>
0.000469613

>  <SCORE.SYSTEM>
0

>  <SCORE.SYSTEM.CONST>
0

>  <SCORE.SYSTEM.DIHEDRAL>
0

>  <SCORE.SYSTEM.SOLV>
0

>  <SCORE.SYSTEM.norm>
0

>  <SCORE.heavy>
26

>  <SCORE.norm>
-0.438477

>  <RMSD>
8.821

$$$$
ligand
 OpenBabel11021811423D
libRbt.so/2013.1/901 2013/11/27
 26 27  0  0  0  0  0  0  0  0999 V2000
    2.4204  -20.3257 -101.9182 C   0  0  0  0  0  0  0  0  0  0  0  0
    5.4293  -13.2217  -97.5840 C   0  0  0  0  0  0  0  0  0  0  0  0
    1.4792  -10.7960  -95.9064 P   0  0  2  0  0  0  0  0  0  0  0  0
   -0.9389  -11.2055  -97.1931 P   0  0  2  0  0  0  0  0  0  0  0  0
    4.5797  -15.9680  -98.8829 C   0  0  0  0  0  0  0  0  0  0  0  0
    4.7603  -17.7717 -100.5783 C   0  0  0  0  0  0  0  0  0  0  0  0
    3.9610  -17.0879  -99.6714 C   0  0  0  0  0  0  0  0  0  0  0  0
    2.6381  -17.5027  -99.4915 C   0  0  0  0  0  0  0  0  0  0  0  0
    1.7829  -16.9329  -98.6420 N   0  0  0  0  0  0  0  0  0  0  0  0
    2.1653  -18.5573 -100.2288 N   0  0  0  0  0  0  0  0  0  0  0  0
    2.9701  -19.1983 -101.1281 C   0  0  0  0  0  0  0  0  0  0  0  0
    4.2632  -18.8266 -101.3132 N   0  0  0  0  0  0  0  0  0  0  0  0
    2.3158  -11.5089  -94.8623 O   0  5  0  0  0  0  0  0  0  0  0  0
   -1.3611   -9.8572  -96.6542 O   0  0  0  0  0  0  0  0  0  0  0  0
    2.8850  -12.8464 -100.5418 S   0  0  0  0  0  0  0  0  0  0  0  0
    3.2576  -14.4141 -100.2980 C   0  0  0  0  0  0  0  0  0  0  0  0
    1.1998   -9.4013  -95.3526 O   0  0  0  0  0  0  0  0  0  0  0  0
   -2.0713  -12.2109  -97.1429 O   0  5  0  0  0  0  0  0  0  0  0  0
    4.1592  -14.6444  -99.2761 N   0  0  0  0  0  0  0  0  0  0  0  0
    0.2162  -11.7456  -96.2364 O   0  0  0  0  0  0  0  0  0  0  0  0
   -0.4550  -11.0172  -98.6165 O   0  0  0  0  0  0  0  0  0  0  0  0
    4.5060  -13.4396  -98.7161 C   0  0  1  0  0  0  0  0  0  0  0  0
    3.8422  -12.3786  -99.3520 C   0  0  2  0  0  0  0  0  0  0  0  0
    3.8095  -10.8810  -99.1719 C   0  0  0  0  0  0  0  0  0  0  0  0
    3.4938  -10.5012  -97.7212 C   0  0  0  0  0  0  0  0  0  0  0  0
    2.2028  -10.9874  -97.3752 O   0  0  0  0  0  0  0  0  0  0  0  0
  1 11  1  0  0  0  0
  3 13  1  1  0  0  0
  3 17  2  0  0  0  0
  3 20  1  0  0  0  0
  3 26  1  0  0  0  0
  4 14  1  1  0  0  0
  4 18  1  0  0  0  0
  4 21  2  0  0  0  0
  4 20  1  0  0  0  0
  5 19  1  0  0  0  0
  5  7  1  0  0  0  0
  6  7  2  0  0  0  0
  6 12  1  0  0  0  0
  7  8  1  0  0  0  0
  8  9  1  0  0  0  0
  8 10  2  0  0  0  0
 10 11  1  0  0  0  0
 11 12  2  0  0  0  0
 15 23  1  0  0  0  0
 15 16  1  0  0  0  0
 16 19  1  0  0  0  0
 19 22  1  0  0  0  0
 22  2  1  1  0  0  0
 22 23  1  0  0  0  0
 23 24  1  1  0  0  0
 24 25  1  0  0  0  0
 25 26  1  0  0  0  0
M  CHG  2  13  -1  18  -1
M  END
>  <CHROM.1>
173.65996899,-0.01409629,107.66245271,-51.30894063,126.95844130,-62.06939688
179.94686641,-62.77151409,2.17918347,-13.52726484,-98.42203840,1.22548250
-0.16434607,-2.70247922

>  <Name>
ligand

>  <RI>
0

>  <Rbt.Current_Directory>
/home/itssahil/PROJECTS/Mol_Feturizer/New_Systems/rnas/2CKY

>  <Rbt.Executable>
rbdock ($Id: //depot/dev/client3/rdock/2013.1/src/exe/rbdock.cxx#4 $)

>  <Rbt.Library>
libRbt.so (2013.1, Build901 2013/11/27)

>  <Rbt.Parameter_File>
/export/apps/rDock/src/rDock_2013.1_src/data/scripts/dock_solv.prm

>  <Rbt.Receptor>
prm/pocket_docking_8.prm

>  <SCORE>
-17.5315

>  <SCORE.INTER>
-10.2636

>  <SCORE.INTER.CONST>
1

>  <SCORE.INTER.POLAR>
0

>  <SCORE.INTER.ROT>
8

>  <SCORE.INTER.SOLV>
6.98777

>  <SCORE.INTER.VDW>
-18.105

>  <SCORE.INTER.norm>
-0.394756

>  <SCORE.INTRA>
-7.26785

>  <SCORE.INTRA.DIHEDRAL>
-11.494

>  <SCORE.INTRA.DIHEDRAL.0>
16.4846

>  <SCORE.INTRA.POLAR>
0

>  <SCORE.INTRA.POLAR.0>
0

>  <SCORE.INTRA.REPUL>
0

>  <SCORE.INTRA.REPUL.0>
0

>  <SCORE.INTRA.SOLV>
0.602573

>  <SCORE.INTRA.SOLV.lig_0>
-82.6983

>  <SCORE.INTRA.VDW>
-1.82212

>  <SCORE.INTRA.VDW.0>
-2.11466

>  <SCORE.INTRA.norm>
-0.279533

>  <SCORE.RESTR>
0

>  <SCORE.RESTR.CAVITY>
0

>  <SCORE.RESTR.norm>
0

>  <SCORE.SYSTEM>
0

>  <SCORE.SYSTEM.CONST>
0

>  <SCORE.SYSTEM.DIHEDRAL>
0

>  <SCORE.SYSTEM.SOLV>
0

>  <SCORE.SYSTEM.norm>
0

>  <SCORE.heavy>
26

>  <SCORE.norm>
-0.674288

>  <RMSD>
8.834

$$$$
ligand
 OpenBabel11021811423D
libRbt.so/2013.1/901 2013/11/27
 26 27  0  0  0  0  0  0  0  0999 V2000
   -2.3683  -11.9483  -98.2580 C   0  0  0  0  0  0  0  0  0  0  0  0
    3.0583  -15.4639 -100.0249 C   0  0  0  0  0  0  0  0  0  0  0  0
    2.2220  -16.6119  -95.4134 P   0  0  2  0  0  0  0  0  0  0  0  0
    0.7142  -18.3700  -96.9320 P   0  0  2  0  0  0  0  0  0  0  0  0
    2.9559  -12.3277 -100.3494 C   0  0  0  0  0  0  0  0  0  0  0  0
    0.6462  -13.1828 -100.0418 C   0  0  0  0  0  0  0  0  0  0  0  0
    1.5661  -12.1709  -99.7993 C   0  0  0  0  0  0  0  0  0  0  0  0
    1.1793  -11.0819  -99.0126 C   0  0  0  0  0  0  0  0  0  0  0  0
    1.9778  -10.0602  -98.7024 N   0  0  0  0  0  0  0  0  0  0  0  0
   -0.0999  -11.0366  -98.5218 N   0  0  0  0  0  0  0  0  0  0  0  0
   -0.9890  -12.0380  -98.7937 C   0  0  0  0  0  0  0  0  0  0  0  0
   -0.6369  -13.1149  -99.5427 N   0  0  0  0  0  0  0  0  0  0  0  0
    2.9732  -16.6563  -94.0975 O   0  5  0  0  0  0  0  0  0  0  0  0
    0.3446  -19.8358  -96.8908 O   0  0  0  0  0  0  0  0  0  0  0  0
    5.6749  -13.5636  -97.8101 S   0  0  0  0  0  0  0  0  0  0  0  0
    4.8002  -12.5130  -98.6974 C   0  0  0  0  0  0  0  0  0  0  0  0
    1.1470  -15.5395  -95.2573 O   0  0  0  0  0  0  0  0  0  0  0  0
    1.4188  -18.0038  -98.2223 O   0  5  0  0  0  0  0  0  0  0  0  0
    3.8540  -13.0949  -99.5198 N   0  0  0  0  0  0  0  0  0  0  0  0
    1.7448  -18.1186  -95.7422 O   0  0  0  0  0  0  0  0  0  0  0  0
   -0.5533  -17.5564  -96.7664 O   0  0  0  0  0  0  0  0  0  0  0  0
    3.9058  -14.4570  -99.3543 C   0  0  1  0  0  0  0  0  0  0  0  0
    4.8876  -14.8138  -98.4166 C   0  0  2  0  0  0  0  0  0  0  0  0
    5.3782  -16.1142  -97.8296 C   0  0  0  0  0  0  0  0  0  0  0  0
    4.7265  -16.3930  -96.4710 C   0  0  0  0  0  0  0  0  0  0  0  0
    3.3207  -16.5281  -96.6395 O   0  0  0  0  0  0  0  0  0  0  0  0
  1 11  1  0  0  0  0
  3 13  1  1  0  0  0
  3 17  2  0  0  0  0
  3 20  1  0  0  0  0
  3 26  1  0  0  0  0
  4 14  1  6  0  0  0
  4 18  1  0  0  0  0
  4 21  2  0  0  0  0
  4 20  1  0  0  0  0
  5 19  1  0  0  0  0
  5  7  1  0  0  0  0
  6  7  2  0  0  0  0
  6 12  1  0  0  0  0
  7  8  1  0  0  0  0
  8  9  1  0  0  0  0
  8 10  2  0  0  0  0
 10 11  1  0  0  0  0
 11 12  2  0  0  0  0
 15 23  1  0  0  0  0
 15 16  1  0  0  0  0
 16 19  1  0  0  0  0
 19 22  1  0  0  0  0
 22  2  1  1  0  0  0
 22 23  1  0  0  0  0
 23 24  1  1  0  0  0
 24 25  1  0  0  0  0
 25 26  1  0  0  0  0
M  CHG  2  13  -1  18  -1
M  END
>  <CHROM.1>
169.51710794,-100.79436435,-84.73326528,-173.71227933,82.18352759,62.43788922
-170.51528826,-5.41319146,2.14287421,-14.97127229,-97.72154695,1.56812891
-0.01119608,-0.46191210

>  <Name>
ligand

>  <RI>
0

>  <Rbt.Current_Directory>
/home/itssahil/PROJECTS/Mol_Feturizer/New_Systems/rnas/2CKY

>  <Rbt.Executable>
rbdock ($Id: //depot/dev/client3/rdock/2013.1/src/exe/rbdock.cxx#4 $)

>  <Rbt.Library>
libRbt.so (2013.1, Build901 2013/11/27)

>  <Rbt.Parameter_File>
/export/apps/rDock/src/rDock_2013.1_src/data/scripts/dock_solv.prm

>  <Rbt.Receptor>
prm/pocket_docking_5.prm

>  <SCORE>
-18.9325

>  <SCORE.INTER>
-13.5712

>  <SCORE.INTER.CONST>
1

>  <SCORE.INTER.POLAR>
0

>  <SCORE.INTER.ROT>
8

>  <SCORE.INTER.SOLV>
7.62108

>  <SCORE.INTER.VDW>
-20.5211

>  <SCORE.INTER.norm>
-0.521968

>  <SCORE.INTRA>
-5.36129

>  <SCORE.INTRA.DIHEDRAL>
-8.53155

>  <SCORE.INTRA.DIHEDRAL.0>
16.4846

>  <SCORE.INTRA.POLAR>
0

>  <SCORE.INTRA.POLAR.0>
0

>  <SCORE.INTRA.REPUL>
0

>  <SCORE.INTRA.REPUL.0>
0

>  <SCORE.INTRA.SOLV>
2.18001

>  <SCORE.INTRA.SOLV.lig_0>
-82.6983

>  <SCORE.INTRA.VDW>
-2.18552

>  <SCORE.INTRA.VDW.0>
-2.11466

>  <SCORE.INTRA.norm>
-0.206203

>  <SCORE.RESTR>
0

>  <SCORE.RESTR.CAVITY>
0

>  <SCORE.RESTR.norm>
0

>  <SCORE.SYSTEM>
0

>  <SCORE.SYSTEM.CONST>
0

>  <SCORE.SYSTEM.DIHEDRAL>
0

>  <SCORE.SYSTEM.SOLV>
0

>  <SCORE.SYSTEM.norm>
0

>  <SCORE.heavy>
26

>  <SCORE.norm>
-0.728171

>  <RMSD>
8.843

$$$$
ligand
 OpenBabel11021811423D
libRbt.so/2013.1/901 2013/11/27
 26 27  0  0  0  0  0  0  0  0999 V2000
    4.6414  -16.2197  -99.0942 C   0  0  0  0  0  0  0  0  0  0  0  0
   -1.3991  -13.8061  -99.2274 C   0  0  0  0  0  0  0  0  0  0  0  0
   -1.1707  -16.4034  -94.9529 P   0  0  2  0  0  0  0  0  0  0  0  0
   -0.3882  -19.0154  -94.4672 P   0  0  2  0  0  0  0  0  0  0  0  0
   -0.6252  -16.0087 -101.3488 C   0  0  0  0  0  0  0  0  0  0  0  0
    1.6254  -15.0537 -100.9211 C   0  0  0  0  0  0  0  0  0  0  0  0
    0.7524  -16.1217 -100.7589 C   0  0  0  0  0  0  0  0  0  0  0  0
    1.1702  -17.2269 -100.0118 C   0  0  0  0  0  0  0  0  0  0  0  0
    0.4167  -18.3019  -99.7783 N   0  0  0  0  0  0  0  0  0  0  0  0
    2.4336  -17.2314  -99.4796 N   0  0  0  0  0  0  0  0  0  0  0  0
    3.2773  -16.1740  -99.6727 C   0  0  0  0  0  0  0  0  0  0  0  0
    2.8936  -15.0808 -100.3815 N   0  0  0  0  0  0  0  0  0  0  0  0
   -0.0207  -15.4881  -95.3242 O   0  5  0  0  0  0  0  0  0  0  0  0
    1.1070  -18.9043  -94.2705 O   0  0  0  0  0  0  0  0  0  0  0  0
   -3.6587  -17.0051  -99.0743 S   0  0  0  0  0  0  0  0  0  0  0  0
   -2.5424  -17.1443 -100.2536 C   0  0  0  0  0  0  0  0  0  0  0  0
   -1.3865  -16.2332  -93.4515 O   0  0  0  0  0  0  0  0  0  0  0  0
   -0.7774  -20.3450  -95.0806 O   0  5  0  0  0  0  0  0  0  0  0  0
   -1.7022  -16.0554 -100.3890 N   0  0  0  0  0  0  0  0  0  0  0  0
   -0.8051  -17.8767  -95.5021 O   0  0  0  0  0  0  0  0  0  0  0  0
   -1.0588  -18.8319  -93.1210 O   0  0  0  0  0  0  0  0  0  0  0  0
   -2.0466  -15.1149  -99.4496 C   0  0  1  0  0  0  0  0  0  0  0  0
   -3.1241  -15.5567  -98.6658 C   0  0  2  0  0  0  0  0  0  0  0  0
   -3.9038  -14.9857  -97.5071 C   0  0  0  0  0  0  0  0  0  0  0  0
   -3.0393  -14.8943  -96.2452 C   0  0  0  0  0  0  0  0  0  0  0  0
   -2.4061  -16.1466  -96.0139 O   0  0  0  0  0  0  0  0  0  0  0  0
  1 11  1  0  0  0  0
  3 13  1  6  0  0  0
  3 17  2  0  0  0  0
  3 20  1  0  0  0  0
  3 26  1  0  0  0  0
  4 14  1  1  0  0  0
  4 18  1  0  0  0  0
  4 21  2  0  0  0  0
  4 20  1  0  0  0  0
  5 19  1  0  0  0  0
  5  7  1  0  0  0  0
  6  7  2  0  0  0  0
  6 12  1  0  0  0  0
  7  8  1  0  0  0  0
  8  9  1  0  0  0  0
  8 10  2  0  0  0  0
 10 11  1  0  0  0  0
 11 12  2  0  0  0  0
 15 23  1  0  0  0  0
 15 16  1  0  0  0  0
 16 19  1  0  0  0  0
 19 22  1  0  0  0  0
 22  2  1  1  0  0  0
 22 23  1  0  0  0  0
 23 24  1  1  0  0  0
 24 25  1  0  0  0  0
 25 26  1  0  0  0  0
M  CHG  2  13  -1  18  -1
M  END
>  <CHROM.1>
107.24152510,-107.65164905,-117.79121799,-87.95250328,111.69005330,-50.46364206
167.18634746,-57.56542045,-0.62785949,-16.74148595,-97.48983198,-1.29539065
-0.22573749,1.95914616

>  <Name>
ligand

>  <RI>
0

>  <Rbt.Current_Directory>
/home/itssahil/PROJECTS/Mol_Feturizer/New_Systems/rnas/2CKY

>  <Rbt.Executable>
rbdock ($Id: //depot/dev/client3/rdock/2013.1/src/exe/rbdock.cxx#4 $)

>  <Rbt.Library>
libRbt.so (2013.1, Build901 2013/11/27)

>  <Rbt.Parameter_File>
/export/apps/rDock/src/rDock_2013.1_src/data/scripts/dock_solv.prm

>  <Rbt.Receptor>
prm/pocket_docking_4.prm

>  <SCORE>
-15.2225

>  <SCORE.INTER>
-10.1624

>  <SCORE.INTER.CONST>
1

>  <SCORE.INTER.POLAR>
0

>  <SCORE.INTER.ROT>
8

>  <SCORE.INTER.SOLV>
15.5716

>  <SCORE.INTER.VDW>
-20.8988

>  <SCORE.INTER.norm>
-0.390862

>  <SCORE.INTRA>
-5.06006

>  <SCORE.INTRA.DIHEDRAL>
-7.63651

>  <SCORE.INTRA.DIHEDRAL.0>
16.4846

>  <SCORE.INTRA.POLAR>
0

>  <SCORE.INTRA.POLAR.0>
0

>  <SCORE.INTRA.REPUL>
0

>  <SCORE.INTRA.REPUL.0>
0

>  <SCORE.INTRA.SOLV>
1.81978

>  <SCORE.INTRA.SOLV.lig_0>
-82.6983

>  <SCORE.INTRA.VDW>
-2.15169

>  <SCORE.INTRA.VDW.0>
-2.11466

>  <SCORE.INTRA.norm>
-0.194618

>  <SCORE.RESTR>
0

>  <SCORE.RESTR.CAVITY>
0

>  <SCORE.RESTR.norm>
0

>  <SCORE.SYSTEM>
0

>  <SCORE.SYSTEM.CONST>
0

>  <SCORE.SYSTEM.DIHEDRAL>
0

>  <SCORE.SYSTEM.SOLV>
0

>  <SCORE.SYSTEM.norm>
0

>  <SCORE.heavy>
26

>  <SCORE.norm>
-0.585479

>  <RMSD>
8.847

$$$$
ligand
 OpenBabel11021811423D
libRbt.so/2013.1/901 2013/11/27
 26 27  0  0  0  0  0  0  0  0999 V2000
   -3.8014  -13.9067  -98.5515 C   0  0  0  0  0  0  0  0  0  0  0  0
    3.6408  -16.7859 -100.3275 C   0  0  0  0  0  0  0  0  0  0  0  0
    3.3905  -16.2274  -96.2028 P   0  0  2  0  0  0  0  0  0  0  0  0
    1.7118  -17.8830  -94.7498 P   0  0  2  0  0  0  0  0  0  0  0  0
    1.2538  -14.8654 -101.0795 C   0  0  0  0  0  0  0  0  0  0  0  0
   -0.4427  -13.3777 -100.0456 C   0  0  0  0  0  0  0  0  0  0  0  0
   -0.0712  -14.6687 -100.3981 C   0  0  0  0  0  0  0  0  0  0  0  0
   -0.9633  -15.7173 -100.1554 C   0  0  0  0  0  0  0  0  0  0  0  0
   -0.7223  -16.9924 -100.4618 N   0  0  0  0  0  0  0  0  0  0  0  0
   -2.1672  -15.4425  -99.5600 N   0  0  0  0  0  0  0  0  0  0  0  0
   -2.4968  -14.1644  -99.2065 C   0  0  0  0  0  0  0  0  0  0  0  0
   -1.6563  -13.1241  -99.4432 N   0  0  0  0  0  0  0  0  0  0  0  0
    3.3085  -15.0518  -95.2493 O   0  5  0  0  0  0  0  0  0  0  0  0
    1.8121  -19.1980  -94.0100 O   0  0  0  0  0  0  0  0  0  0  0  0
    3.9354  -13.2112  -98.7469 S   0  0  0  0  0  0  0  0  0  0  0  0
    2.5901  -13.3284  -99.6594 C   0  0  0  0  0  0  0  0  0  0  0  0
    2.4066  -15.9330  -97.3320 O   0  0  0  0  0  0  0  0  0  0  0  0
    0.7645  -17.9721  -95.9290 O   0  5  0  0  0  0  0  0  0  0  0  0
    2.4059  -14.5560 -100.2669 N   0  0  0  0  0  0  0  0  0  0  0  0
    3.1621  -17.5666  -95.3308 O   0  0  0  0  0  0  0  0  0  0  0  0
    1.2484  -16.8226  -93.7718 O   0  0  0  0  0  0  0  0  0  0  0  0
    3.4470  -15.3802  -99.9172 C   0  0  1  0  0  0  0  0  0  0  0  0
    4.3485  -14.7204  -99.0672 C   0  0  2  0  0  0  0  0  0  0  0  0
    5.6284  -15.1042  -98.3666 C   0  0  0  0  0  0  0  0  0  0  0  0
    5.5599  -16.5367  -97.8268 C   0  0  0  0  0  0  0  0  0  0  0  0
    4.9787  -16.5258  -96.5287 O   0  0  0  0  0  0  0  0  0  0  0  0
  1 11  1  0  0  0  0
  3 13  1  1  0  0  0
  3 17  2  0  0  0  0
  3 20  1  0  0  0  0
  3 26  1  0  0  0  0
  4 14  1  1  0  0  0
  4 18  1  0  0  0  0
  4 21  2  0  0  0  0
  4 20  1  0  0  0  0
  5 19  1  0  0  0  0
  5  7  1  0  0  0  0
  6  7  2  0  0  0  0
  6 12  1  0  0  0  0
  7  8  1  0  0  0  0
  8  9  1  0  0  0  0
  8 10  2  0  0  0  0
 10 11  1  0  0  0  0
 11 12  2  0  0  0  0
 15 23  1  0  0  0  0
 15 16  1  0  0  0  0
 16 19  1  0  0  0  0
 19 22  1  0  0  0  0
 22  2  1  1  0  0  0
 22 23  1  0  0  0  0
 23 24  1  1  0  0  0
 24 25  1  0  0  0  0
 25 26  1  0  0  0  0
M  CHG  2  13  -1  18  -1
M  END
>  <CHROM.1>
71.10448819,-55.88640080,65.83772819,179.03098051,140.40665223,-87.02023874
71.25175963,-122.76450397,1.87979094,-15.68016378,-97.83038474,2.24666430
-0.03924676,-0.98702110

>  <Name>
ligand

>  <RI>
0

>  <Rbt.Current_Directory>
/home/itssahil/PROJECTS/Mol_Feturizer/New_Systems/rnas/2CKY

>  <Rbt.Executable>
rbdock ($Id: //depot/dev/client3/rdock/2013.1/src/exe/rbdock.cxx#4 $)

>  <Rbt.Library>
libRbt.so (2013.1, Build901 2013/11/27)

>  <Rbt.Parameter_File>
/export/apps/rDock/src/rDock_2013.1_src/data/scripts/dock_solv.prm

>  <Rbt.Receptor>
prm/pocket_docking_4.prm

>  <SCORE>
-14.9921

>  <SCORE.INTER>
-12.4443

>  <SCORE.INTER.CONST>
1

>  <SCORE.INTER.POLAR>
0

>  <SCORE.INTER.ROT>
8

>  <SCORE.INTER.SOLV>
9.60712

>  <SCORE.INTER.VDW>
-20.4319

>  <SCORE.INTER.norm>
-0.478627

>  <SCORE.INTRA>
-2.54776

>  <SCORE.INTRA.DIHEDRAL>
-6.2564

>  <SCORE.INTRA.DIHEDRAL.0>
16.4846

>  <SCORE.INTRA.POLAR>
0

>  <SCORE.INTRA.POLAR.0>
0

>  <SCORE.INTRA.REPUL>
0

>  <SCORE.INTRA.REPUL.0>
0

>  <SCORE.INTRA.SOLV>
6.07527

>  <SCORE.INTRA.SOLV.lig_0>
-82.6983

>  <SCORE.INTRA.VDW>
-2.45719

>  <SCORE.INTRA.VDW.0>
-2.11466

>  <SCORE.INTRA.norm>
-0.0979908

>  <SCORE.RESTR>
0

>  <SCORE.RESTR.CAVITY>
0

>  <SCORE.RESTR.norm>
0

>  <SCORE.SYSTEM>
0

>  <SCORE.SYSTEM.CONST>
0

>  <SCORE.SYSTEM.DIHEDRAL>
0

>  <SCORE.SYSTEM.SOLV>
0

>  <SCORE.SYSTEM.norm>
0

>  <SCORE.heavy>
26

>  <SCORE.norm>
-0.576617

>  <RMSD>
8.849

$$$$
ligand
 OpenBabel11021811423D
libRbt.so/2013.1/901 2013/11/27
 26 27  0  0  0  0  0  0  0  0999 V2000
    3.0952  -12.9283 -100.7474 C   0  0  0  0  0  0  0  0  0  0  0  0
   -0.5801  -15.9256  -97.0721 C   0  0  0  0  0  0  0  0  0  0  0  0
    0.2995  -16.4058  -92.3790 P   0  0  2  0  0  0  0  0  0  0  0  0
    0.4680  -13.6508  -92.6071 P   0  0  2  0  0  0  0  0  0  0  0  0
   -0.6230  -17.2182  -99.9494 C   0  0  0  0  0  0  0  0  0  0  0  0
   -0.0581  -14.8154 -100.2098 C   0  0  0  0  0  0  0  0  0  0  0  0
    0.3873  -16.1307 -100.1848 C   0  0  0  0  0  0  0  0  0  0  0  0
    1.7553  -16.3825 -100.3242 C   0  0  0  0  0  0  0  0  0  0  0  0
    2.2993  -17.5996 -100.3031 N   0  0  0  0  0  0  0  0  0  0  0  0
    2.6117  -15.3266 -100.5006 N   0  0  0  0  0  0  0  0  0  0  0  0
    2.1415  -14.0442 -100.5406 C   0  0  0  0  0  0  0  0  0  0  0  0
    0.8197  -13.7686 -100.3935 N   0  0  0  0  0  0  0  0  0  0  0  0
    0.2790  -16.4042  -90.8632 O   0  5  0  0  0  0  0  0  0  0  0  0
    0.4959  -13.4368  -91.1105 O   0  0  0  0  0  0  0  0  0  0  0  0
   -0.1620  -19.8228  -97.0559 S   0  0  0  0  0  0  0  0  0  0  0  0
   -0.3338  -19.2683  -98.5788 C   0  0  0  0  0  0  0  0  0  0  0  0
    1.7357  -16.7219  -92.7879 O   0  0  0  0  0  0  0  0  0  0  0  0
   -0.2781  -12.5414  -93.3200 O   0  5  0  0  0  0  0  0  0  0  0  0
   -0.4970  -17.8998  -98.6833 N   0  0  0  0  0  0  0  0  0  0  0  0
   -0.3344  -15.0035  -92.8667 O   0  0  0  0  0  0  0  0  0  0  0  0
    1.8980  -13.7354  -93.1011 O   0  0  0  0  0  0  0  0  0  0  0  0
   -0.4625  -17.3555  -97.4232 C   0  0  1  0  0  0  0  0  0  0  0  0
   -0.2743  -18.3494  -96.4499 C   0  0  2  0  0  0  0  0  0  0  0  0
   -0.1421  -18.3578  -94.9469 C   0  0  0  0  0  0  0  0  0  0  0  0
   -1.2723  -17.5632  -94.2839 C   0  0  0  0  0  0  0  0  0  0  0  0
   -0.9514  -17.3349  -92.9173 O   0  0  0  0  0  0  0  0  0  0  0  0
  1 11  1  0  0  0  0
  3 13  1  1  0  0  0
  3 17  2  0  0  0  0
  3 20  1  0  0  0  0
  3 26  1  0  0  0  0
  4 14  1  1  0  0  0
  4 18  1  0  0  0  0
  4 21  2  0  0  0  0
  4 20  1  0  0  0  0
  5 19  1  0  0  0  0
  5  7  1  0  0  0  0
  6  7  2  0  0  0  0
  6 12  1  0  0  0  0
  7  8  1  0  0  0  0
  8  9  1  0  0  0  0
  8 10  2  0  0  0  0
 10 11  1  0  0  0  0
 11 12  2  0  0  0  0
 15 23  1  0  0  0  0
 15 16  1  0  0  0  0
 16 19  1  0  0  0  0
 19 22  1  0  0  0  0
 22  2  1  6  0  0  0
 22 23  1  0  0  0  0
 23 24  1  6  0  0  0
 24 25  1  0  0  0  0
 25 26  1  0  0  0  0
M  CHG  2  13  -1  18  -1
M  END
>  <CHROM.1>
68.73311760,-123.49662763,-111.44481513,-67.00456571,-130.34431811,-166.74431862
65.69019123,179.06982867,0.44121027,-16.09210907,-96.00796474,-1.26583719
1.23813219,1.15136199

>  <Name>
ligand

>  <RI>
0

>  <Rbt.Current_Directory>
/home/itssahil/PROJECTS/Mol_Feturizer/New_Systems/rnas/2CKY

>  <Rbt.Executable>
rbdock ($Id: //depot/dev/client3/rdock/2013.1/src/exe/rbdock.cxx#4 $)

>  <Rbt.Library>
libRbt.so (2013.1, Build901 2013/11/27)

>  <Rbt.Parameter_File>
/export/apps/rDock/src/rDock_2013.1_src/data/scripts/dock_solv.prm

>  <Rbt.Receptor>
prm/pocket_docking_5.prm

>  <SCORE>
-12.4204

>  <SCORE.INTER>
-6.28266

>  <SCORE.INTER.CONST>
1

>  <SCORE.INTER.POLAR>
0

>  <SCORE.INTER.ROT>
8

>  <SCORE.INTER.SOLV>
12.5109

>  <SCORE.INTER.VDW>
-17.2921

>  <SCORE.INTER.norm>
-0.241641

>  <SCORE.INTRA>
-6.13774

>  <SCORE.INTRA.DIHEDRAL>
-10.8981

>  <SCORE.INTRA.DIHEDRAL.0>
16.4846

>  <SCORE.INTRA.POLAR>
0

>  <SCORE.INTRA.POLAR.0>
0

>  <SCORE.INTRA.REPUL>
0

>  <SCORE.INTRA.REPUL.0>
0

>  <SCORE.INTRA.SOLV>
2.15818

>  <SCORE.INTRA.SOLV.lig_0>
-82.6983

>  <SCORE.INTRA.VDW>
-1.7678

>  <SCORE.INTRA.VDW.0>
-2.11466

>  <SCORE.INTRA.norm>
-0.236067

>  <SCORE.RESTR>
0

>  <SCORE.RESTR.CAVITY>
0

>  <SCORE.RESTR.norm>
0

>  <SCORE.SYSTEM>
0

>  <SCORE.SYSTEM.CONST>
0

>  <SCORE.SYSTEM.DIHEDRAL>
0

>  <SCORE.SYSTEM.SOLV>
0

>  <SCORE.SYSTEM.norm>
0

>  <SCORE.heavy>
26

>  <SCORE.norm>
-0.477708

>  <RMSD>
8.849

$$$$
ligand
 OpenBabel11021811423D
libRbt.so/2013.1/901 2013/11/27
 26 27  0  0  0  0  0  0  0  0999 V2000
    0.4378  -23.0030 -101.4169 C   0  0  0  0  0  0  0  0  0  0  0  0
    1.7998  -15.3445  -98.4866 C   0  0  0  0  0  0  0  0  0  0  0  0
   -2.4703  -14.9284  -97.0668 P   0  0  2  0  0  0  0  0  0  0  0  0
   -2.2999  -12.3399  -96.0967 P   0  0  2  0  0  0  0  0  0  0  0  0
    2.6073  -17.8237 -100.2622 C   0  0  0  0  0  0  0  0  0  0  0  0
    0.8535  -19.5689 -100.0651 C   0  0  0  0  0  0  0  0  0  0  0  0
    2.0922  -19.2007 -100.5740 C   0  0  0  0  0  0  0  0  0  0  0  0
    2.7787  -20.1003 -101.3948 C   0  0  0  0  0  0  0  0  0  0  0  0
    3.9656  -19.8530 -101.9497 N   0  0  0  0  0  0  0  0  0  0  0  0
    2.2183  -21.3239 -101.6558 N   0  0  0  0  0  0  0  0  0  0  0  0
    1.0065  -21.6656 -101.1247 C   0  0  0  0  0  0  0  0  0  0  0  0
    0.3103  -20.8065 -100.3360 N   0  0  0  0  0  0  0  0  0  0  0  0
   -3.5031  -15.7900  -97.7662 O   0  5  0  0  0  0  0  0  0  0  0  0
   -3.3063  -11.3484  -95.5576 O   0  0  0  0  0  0  0  0  0  0  0  0
    0.0422  -15.4141 -101.9893 S   0  0  0  0  0  0  0  0  0  0  0  0
    1.0394  -16.6920 -101.8197 C   0  0  0  0  0  0  0  0  0  0  0  0
   -2.0421  -15.6991  -95.8208 O   0  0  0  0  0  0  0  0  0  0  0  0
   -1.3661  -11.7017  -97.1047 O   0  5  0  0  0  0  0  0  0  0  0  0
    1.7127  -16.7470 -100.6140 N   0  0  0  0  0  0  0  0  0  0  0  0
   -3.1256  -13.4671  -96.8640 O   0  0  0  0  0  0  0  0  0  0  0  0
   -1.5182  -12.9053  -94.9283 O   0  0  0  0  0  0  0  0  0  0  0  0
    1.3382  -15.6680  -99.8518 C   0  0  1  0  0  0  0  0  0  0  0  0
    0.4055  -14.8697 -100.5324 C   0  0  2  0  0  0  0  0  0  0  0  0
   -0.3536  -13.6065 -100.2088 C   0  0  0  0  0  0  0  0  0  0  0  0
   -1.6574  -13.9153  -99.4650 C   0  0  0  0  0  0  0  0  0  0  0  0
   -1.3549  -14.4432  -98.1794 O   0  0  0  0  0  0  0  0  0  0  0  0
  1 11  1  0  0  0  0
  3 13  1  6  0  0  0
  3 17  2  0  0  0  0
  3 20  1  0  0  0  0
  3 26  1  0  0  0  0
  4 14  1  1  0  0  0
  4 18  1  0  0  0  0
  4 21  2  0  0  0  0
  4 20  1  0  0  0  0
  5 19  1  0  0  0  0
  5  7  1  0  0  0  0
  6  7  2  0  0  0  0
  6 12  1  0  0  0  0
  7  8  1  0  0  0  0
  8  9  1  0  0  0  0
  8 10  2  0  0  0  0
 10 11  1  0  0  0  0
 11 12  2  0  0  0  0
 15 23  1  0  0  0  0
 15 16  1  0  0  0  0
 16 19  1  0  0  0  0
 19 22  1  0  0  0  0
 22  2  1  1  0  0  0
 22 23  1  0  0  0  0
 23 24  1  1  0  0  0
 24 25  1  0  0  0  0
 25 26  1  0  0  0  0
M  CHG  2  13  -1  18  -1
M  END
>  <CHROM.1>
177.54791173,-44.77464191,-54.49213632,-156.72301735,93.12518201,66.89919912
-179.00749751,46.57021819,-0.32187846,-16.05313090,-99.03751866,0.84090694
-0.86111485,3.13580670

>  <Name>
ligand

>  <RI>
0

>  <Rbt.Current_Directory>
/home/itssahil/PROJECTS/Mol_Feturizer/New_Systems/rnas/2CKY

>  <Rbt.Executable>
rbdock ($Id: //depot/dev/client3/rdock/2013.1/src/exe/rbdock.cxx#4 $)

>  <Rbt.Library>
libRbt.so (2013.1, Build901 2013/11/27)

>  <Rbt.Parameter_File>
/export/apps/rDock/src/rDock_2013.1_src/data/scripts/dock_solv.prm

>  <Rbt.Receptor>
prm/pocket_docking_8.prm

>  <SCORE>
-19.6862

>  <SCORE.INTER>
-13.443

>  <SCORE.INTER.CONST>
1

>  <SCORE.INTER.POLAR>
0

>  <SCORE.INTER.ROT>
8

>  <SCORE.INTER.SOLV>
12.9053

>  <SCORE.INTER.VDW>
-22.1971

>  <SCORE.INTER.norm>
-0.517038

>  <SCORE.INTRA>
-6.2432

>  <SCORE.INTRA.DIHEDRAL>
-10.4462

>  <SCORE.INTRA.DIHEDRAL.0>
16.4846

>  <SCORE.INTRA.POLAR>
0

>  <SCORE.INTRA.POLAR.0>
0

>  <SCORE.INTRA.REPUL>
0

>  <SCORE.INTRA.REPUL.0>
0

>  <SCORE.INTRA.SOLV>
1.91823

>  <SCORE.INTRA.SOLV.lig_0>
-82.6983

>  <SCORE.INTRA.VDW>
-1.97923

>  <SCORE.INTRA.VDW.0>
-2.11466

>  <SCORE.INTRA.norm>
-0.240123

>  <SCORE.RESTR>
0

>  <SCORE.RESTR.CAVITY>
0

>  <SCORE.RESTR.norm>
0

>  <SCORE.SYSTEM>
0

>  <SCORE.SYSTEM.CONST>
0

>  <SCORE.SYSTEM.DIHEDRAL>
0

>  <SCORE.SYSTEM.SOLV>
0

>  <SCORE.SYSTEM.norm>
0

>  <SCORE.heavy>
26

>  <SCORE.norm>
-0.757161

>  <RMSD>
8.876

$$$$
ligand
 OpenBabel11021811423D
libRbt.so/2013.1/901 2013/11/27
 26 27  0  0  0  0  0  0  0  0999 V2000
    1.4263   -8.5041  -97.7575 C   0  0  0  0  0  0  0  0  0  0  0  0
   -2.7151  -15.3796  -95.7257 C   0  0  0  0  0  0  0  0  0  0  0  0
   -2.1959  -19.7601  -99.1017 P   0  0  2  0  0  0  0  0  0  0  0  0
   -2.1415  -21.9102  -97.3568 P   0  0  2  0  0  0  0  0  0  0  0  0
   -2.4444  -12.2370  -95.7705 C   0  0  0  0  0  0  0  0  0  0  0  0
   -1.6667  -10.5274  -97.3931 C   0  0  0  0  0  0  0  0  0  0  0  0
   -1.3883  -11.2894  -96.2658 C   0  0  0  0  0  0  0  0  0  0  0  0
   -0.1669  -11.1045  -95.6114 C   0  0  0  0  0  0  0  0  0  0  0  0
    0.2043  -11.7675  -94.5158 N   0  0  0  0  0  0  0  0  0  0  0  0
    0.7254  -10.1925  -96.1129 N   0  0  0  0  0  0  0  0  0  0  0  0
    0.4314   -9.4712  -97.2356 C   0  0  0  0  0  0  0  0  0  0  0  0
   -0.7531   -9.6193  -97.8836 N   0  0  0  0  0  0  0  0  0  0  0  0
   -2.3971  -20.2665 -100.5163 O   0  5  0  0  0  0  0  0  0  0  0  0
   -1.0040  -21.2179  -96.6404 O   0  0  0  0  0  0  0  0  0  0  0  0
   -4.0909  -13.7255  -99.0020 S   0  0  0  0  0  0  0  0  0  0  0  0
   -3.5256  -12.5910  -97.9775 C   0  0  0  0  0  0  0  0  0  0  0  0
   -0.6902  -19.5905  -98.9173 O   0  0  0  0  0  0  0  0  0  0  0  0
   -1.6378  -22.8793  -98.4070 O   0  5  0  0  0  0  0  0  0  0  0  0
   -3.0261  -13.0819  -96.7860 N   0  0  0  0  0  0  0  0  0  0  0  0
   -2.9685  -20.7781  -98.1154 O   0  0  0  0  0  0  0  0  0  0  0  0
   -2.9831  -22.6322  -96.3242 O   0  0  0  0  0  0  0  0  0  0  0  0
   -3.1410  -14.4502  -96.7917 C   0  0  1  0  0  0  0  0  0  0  0  0
   -3.7190  -14.9024  -97.9884 C   0  0  2  0  0  0  0  0  0  0  0  0
   -4.0701  -16.2547  -98.5580 C   0  0  0  0  0  0  0  0  0  0  0  0
   -2.8252  -17.1353  -98.7099 C   0  0  0  0  0  0  0  0  0  0  0  0
   -3.2213  -18.4943  -98.8492 O   0  0  0  0  0  0  0  0  0  0  0  0
  1 11  1  0  0  0  0
  3 13  1  6  0  0  0
  3 17  2  0  0  0  0
  3 20  1  0  0  0  0
  3 26  1  0  0  0  0
  4 14  1  1  0  0  0
  4 18  1  0  0  0  0
  4 21  2  0  0  0  0
  4 20  1  0  0  0  0
  5 19  1  0  0  0  0
  5  7  1  0  0  0  0
  6  7  2  0  0  0  0
  6 12  1  0  0  0  0
  7  8  1  0  0  0  0
  8  9  1  0  0  0  0
  8 10  2  0  0  0  0
 10 11  1  0  0  0  0
 11 12  2  0  0  0  0
 15 23  1  0  0  0  0
 15 16  1  0  0  0  0
 16 19  1  0  0  0  0
 19 22  1  0  0  0  0
 22  2  1  6  0  0  0
 22 23  1  0  0  0  0
 23 24  1  6  0  0  0
 24 25  1  0  0  0  0
 25 26  1  0  0  0  0
M  CHG  2  13  -1  18  -1
M  END
>  <CHROM.1>
99.02915769,-50.62094884,48.54819679,53.00666540,118.71774730,162.34966247
177.23447612,-109.98761945,-2.03815181,-16.02363810,-97.63786613,-1.41004963
0.64240408,-3.11998132

>  <Name>
ligand

>  <RI>
0

>  <Rbt.Current_Directory>
/home/itssahil/PROJECTS/Mol_Feturizer/New_Systems/rnas/2CKY

>  <Rbt.Executable>
rbdock ($Id: //depot/dev/client3/rdock/2013.1/src/exe/rbdock.cxx#4 $)

>  <Rbt.Library>
libRbt.so (2013.1, Build901 2013/11/27)

>  <Rbt.Parameter_File>
/export/apps/rDock/src/rDock_2013.1_src/data/scripts/dock_solv.prm

>  <Rbt.Receptor>
prm/pocket_docking_7.prm

>  <SCORE>
-21.1872

>  <SCORE.INTER>
-16.7707

>  <SCORE.INTER.CONST>
1

>  <SCORE.INTER.POLAR>
0

>  <SCORE.INTER.ROT>
8

>  <SCORE.INTER.SOLV>
11.3133

>  <SCORE.INTER.VDW>
-23.8849

>  <SCORE.INTER.norm>
-0.645027

>  <SCORE.INTRA>
-4.41654

>  <SCORE.INTRA.DIHEDRAL>
-7.10076

>  <SCORE.INTRA.DIHEDRAL.0>
16.4846

>  <SCORE.INTRA.POLAR>
0

>  <SCORE.INTRA.POLAR.0>
0

>  <SCORE.INTRA.REPUL>
0

>  <SCORE.INTRA.REPUL.0>
0

>  <SCORE.INTRA.SOLV>
-0.156036

>  <SCORE.INTRA.SOLV.lig_0>
-82.6983

>  <SCORE.INTRA.VDW>
-0.788143

>  <SCORE.INTRA.VDW.0>
-2.11466

>  <SCORE.INTRA.norm>
-0.169867

>  <SCORE.RESTR>
0

>  <SCORE.RESTR.CAVITY>
0

>  <SCORE.RESTR.norm>
0

>  <SCORE.SYSTEM>
0

>  <SCORE.SYSTEM.CONST>
0

>  <SCORE.SYSTEM.DIHEDRAL>
0

>  <SCORE.SYSTEM.SOLV>
0

>  <SCORE.SYSTEM.norm>
0

>  <SCORE.heavy>
26

>  <SCORE.norm>
-0.814894

>  <RMSD>
8.884

$$$$
ligand
 OpenBabel11021811423D
libRbt.so/2013.1/901 2013/11/27
 26 27  0  0  0  0  0  0  0  0999 V2000
    5.4344  -16.1404  -98.7289 C   0  0  0  0  0  0  0  0  0  0  0  0
   -0.5180  -12.8760  -98.1890 C   0  0  0  0  0  0  0  0  0  0  0  0
   -0.5416  -16.0178  -94.8377 P   0  0  2  0  0  0  0  0  0  0  0  0
   -1.3093  -17.8630  -92.9203 P   0  0  2  0  0  0  0  0  0  0  0  0
    0.5443  -14.0841 -100.9025 C   0  0  0  0  0  0  0  0  0  0  0  0
    2.0567  -15.9445 -100.2608 C   0  0  0  0  0  0  0  0  0  0  0  0
    1.8317  -14.5746 -100.3020 C   0  0  0  0  0  0  0  0  0  0  0  0
    2.8291  -13.7129  -99.8362 C   0  0  0  0  0  0  0  0  0  0  0  0
    2.7315  -12.3832  -99.8378 N   0  0  0  0  0  0  0  0  0  0  0  0
    3.9888  -14.2461  -99.3357 N   0  0  0  0  0  0  0  0  0  0  0  0
    4.1735  -15.5992  -99.2900 C   0  0  0  0  0  0  0  0  0  0  0  0
    3.2282  -16.4598  -99.7488 N   0  0  0  0  0  0  0  0  0  0  0  0
    0.0958  -17.0309  -95.7681 O   0  5  0  0  0  0  0  0  0  0  0  0
   -2.5970  -18.4903  -92.4355 O   0  0  0  0  0  0  0  0  0  0  0  0
   -2.7443  -15.7760  -99.6021 S   0  0  0  0  0  0  0  0  0  0  0  0
   -1.4850  -15.4811 -100.5937 C   0  0  0  0  0  0  0  0  0  0  0  0
    0.5986  -15.3943  -94.0371 O   0  0  0  0  0  0  0  0  0  0  0  0
   -0.5896  -17.1261  -91.8091 O   0  5  0  0  0  0  0  0  0  0  0  0
   -0.6460  -14.4639 -100.1797 N   0  0  0  0  0  0  0  0  0  0  0  0
   -1.7067  -16.7835  -94.0239 O   0  0  0  0  0  0  0  0  0  0  0  0
   -0.4320  -18.9596  -93.4890 O   0  0  0  0  0  0  0  0  0  0  0  0
   -1.1177  -13.9608  -98.9923 C   0  0  1  0  0  0  0  0  0  0  0  0
   -2.2818  -14.6326  -98.5874 C   0  0  2  0  0  0  0  0  0  0  0  0
   -3.2093  -14.5374  -97.4012 C   0  0  0  0  0  0  0  0  0  0  0  0
   -2.7932  -15.5068  -96.2897 C   0  0  0  0  0  0  0  0  0  0  0  0
   -1.5656  -15.0722  -95.7179 O   0  0  0  0  0  0  0  0  0  0  0  0
  1 11  1  0  0  0  0
  3 13  1  6  0  0  0
  3 17  2  0  0  0  0
  3 20  1  0  0  0  0
  3 26  1  0  0  0  0
  4 14  1  1  0  0  0
  4 18  1  0  0  0  0
  4 21  2  0  0  0  0
  4 20  1  0  0  0  0
  5 19  1  0  0  0  0
  5  7  1  0  0  0  0
  6  7  2  0  0  0  0
  6 12  1  0  0  0  0
  7  8  1  0  0  0  0
  8  9  1  0  0  0  0
  8 10  2  0  0  0  0
 10 11  1  0  0  0  0
 11 12  2  0  0  0  0
 15 23  1  0  0  0  0
 15 16  1  0  0  0  0
 16 19  1  0  0  0  0
 19 22  1  0  0  0  0
 22  2  1  1  0  0  0
 22 23  1  0  0  0  0
 23 24  1  1  0  0  0
 24 25  1  0  0  0  0
 25 26  1  0  0  0  0
M  CHG  2  13  -1  18  -1
M  END
>  <CHROM.1>
70.52780265,-102.95568763,64.88343485,-174.77640179,86.91162263,68.90923929
-160.58714528,69.60439217,-0.10675806,-15.69898917,-97.04520822,-1.14397882
-0.06682933,2.00315687

>  <Name>
ligand

>  <RI>
0

>  <Rbt.Current_Directory>
/home/itssahil/PROJECTS/Mol_Feturizer/New_Systems/rnas/2CKY

>  <Rbt.Executable>
rbdock ($Id: //depot/dev/client3/rdock/2013.1/src/exe/rbdock.cxx#4 $)

>  <Rbt.Library>
libRbt.so (2013.1, Build901 2013/11/27)

>  <Rbt.Parameter_File>
/export/apps/rDock/src/rDock_2013.1_src/data/scripts/dock_solv.prm

>  <Rbt.Receptor>
prm/pocket_docking_4.prm

>  <SCORE>
-15.1273

>  <SCORE.INTER>
-10.2693

>  <SCORE.INTER.CONST>
1

>  <SCORE.INTER.POLAR>
0

>  <SCORE.INTER.ROT>
8

>  <SCORE.INTER.SOLV>
10.5553

>  <SCORE.INTER.VDW>
-19.298

>  <SCORE.INTER.norm>
-0.394974

>  <SCORE.INTRA>
-4.85797

>  <SCORE.INTRA.DIHEDRAL>
-9.16445

>  <SCORE.INTRA.DIHEDRAL.0>
16.4846

>  <SCORE.INTRA.POLAR>
0

>  <SCORE.INTRA.POLAR.0>
0

>  <SCORE.INTRA.REPUL>
0

>  <SCORE.INTRA.REPUL.0>
0

>  <SCORE.INTRA.SOLV>
3.11971

>  <SCORE.INTRA.SOLV.lig_0>
-82.6983

>  <SCORE.INTRA.VDW>
-1.8356

>  <SCORE.INTRA.VDW.0>
-2.11466

>  <SCORE.INTRA.norm>
-0.186845

>  <SCORE.RESTR>
0

>  <SCORE.RESTR.CAVITY>
0

>  <SCORE.RESTR.norm>
0

>  <SCORE.SYSTEM>
0

>  <SCORE.SYSTEM.CONST>
0

>  <SCORE.SYSTEM.DIHEDRAL>
0

>  <SCORE.SYSTEM.SOLV>
0

>  <SCORE.SYSTEM.norm>
0

>  <SCORE.heavy>
26

>  <SCORE.norm>
-0.581819

>  <RMSD>
8.914

$$$$
ligand
 OpenBabel11021811423D
libRbt.so/2013.1/901 2013/11/27
 26 27  0  0  0  0  0  0  0  0999 V2000
    2.0640  -22.4213 -101.6715 C   0  0  0  0  0  0  0  0  0  0  0  0
    2.6069  -16.7342  -96.9219 C   0  0  0  0  0  0  0  0  0  0  0  0
    4.3491  -15.9907  -91.4819 P   0  0  2  0  0  0  0  0  0  0  0  0
    3.9515  -13.2557  -91.3030 P   0  0  2  0  0  0  0  0  0  0  0  0
    0.1671  -18.2669  -98.2062 C   0  0  0  0  0  0  0  0  0  0  0  0
    1.8074  -19.2197  -99.8068 C   0  0  0  0  0  0  0  0  0  0  0  0
    0.6100  -19.3745  -99.1204 C   0  0  0  0  0  0  0  0  0  0  0  0
   -0.1010  -20.5694  -99.2655 C   0  0  0  0  0  0  0  0  0  0  0  0
   -1.2524  -20.8361  -98.6482 N   0  0  0  0  0  0  0  0  0  0  0  0
    0.3945  -21.5422 -100.0947 N   0  0  0  0  0  0  0  0  0  0  0  0
    1.5659  -21.3531 -100.7725 C   0  0  0  0  0  0  0  0  0  0  0  0
    2.2852  -20.2087 -100.6397 N   0  0  0  0  0  0  0  0  0  0  0  0
    5.2318  -16.3740  -90.3105 O   0  5  0  0  0  0  0  0  0  0  0  0
    5.3166  -13.1229  -90.6662 O   0  0  0  0  0  0  0  0  0  0  0  0
    0.8312  -19.2146  -94.4606 S   0  0  0  0  0  0  0  0  0  0  0  0
    0.0976  -19.2233  -95.9159 C   0  0  0  0  0  0  0  0  0  0  0  0
    5.2815  -15.7906  -92.6737 O   0  0  0  0  0  0  0  0  0  0  0  0
    2.9466  -12.3069  -90.6820 O   0  5  0  0  0  0  0  0  0  0  0  0
    0.6515  -18.3689  -96.8504 N   0  0  0  0  0  0  0  0  0  0  0  0
    3.4459  -14.7388  -91.0099 O   0  0  0  0  0  0  0  0  0  0  0  0
    4.0923  -12.9871  -92.7876 O   0  0  0  0  0  0  0  0  0  0  0  0
    1.7182  -17.7219  -96.2766 C   0  0  1  0  0  0  0  0  0  0  0  0
    1.8999  -18.1317  -94.9464 C   0  0  2  0  0  0  0  0  0  0  0  0
    2.8831  -17.7954  -93.8525 C   0  0  0  0  0  0  0  0  0  0  0  0
    2.1797  -17.1642  -92.6462 C   0  0  0  0  0  0  0  0  0  0  0  0
    3.0974  -17.0603  -91.5645 O   0  0  0  0  0  0  0  0  0  0  0  0
  1 11  1  0  0  0  0
  3 13  1  1  0  0  0
  3 17  2  0  0  0  0
  3 20  1  0  0  0  0
  3 26  1  0  0  0  0
  4 14  1  1  0  0  0
  4 18  1  0  0  0  0
  4 21  2  0  0  0  0
  4 20  1  0  0  0  0
  5 19  1  0  0  0  0
  5  7  1  0  0  0  0
  6  7  2  0  0  0  0
  6 12  1  0  0  0  0
  7  8  1  0  0  0  0
  8  9  1  0  0  0  0
  8 10  2  0  0  0  0
 10 11  1  0  0  0  0
 11 12  2  0  0  0  0
 15 23  1  0  0  0  0
 15 16  1  0  0  0  0
 16 19  1  0  0  0  0
 19 22  1  0  0  0  0
 22  2  1  6  0  0  0
 22 23  1  0  0  0  0
 23 24  1  6  0  0  0
 24 25  1  0  0  0  0
 25 26  1  0  0  0  0
M  CHG  2  13  -1  18  -1
M  END
>  <CHROM.1>
93.27417964,-78.24419609,-88.85888795,-56.82496156,-62.47435603,170.78819248
72.39718935,-169.42321687,2.43460631,-17.35235141,-94.90498329,-2.12540854
0.95008147,1.39934402

>  <Name>
ligand

>  <RI>
0

>  <Rbt.Current_Directory>
/home/itssahil/PROJECTS/Mol_Feturizer/New_Systems/rnas/2CKY

>  <Rbt.Executable>
rbdock ($Id: //depot/dev/client3/rdock/2013.1/src/exe/rbdock.cxx#4 $)

>  <Rbt.Library>
libRbt.so (2013.1, Build901 2013/11/27)

>  <Rbt.Parameter_File>
/export/apps/rDock/src/rDock_2013.1_src/data/scripts/dock_solv.prm

>  <Rbt.Receptor>
prm/pocket_docking_8.prm

>  <SCORE>
-17.0315

>  <SCORE.INTER>
-12.3545

>  <SCORE.INTER.CONST>
1

>  <SCORE.INTER.POLAR>
0

>  <SCORE.INTER.ROT>
8

>  <SCORE.INTER.SOLV>
13.3621

>  <SCORE.INTER.VDW>
-21.6237

>  <SCORE.INTER.norm>
-0.475174

>  <SCORE.INTRA>
-4.67702

>  <SCORE.INTRA.DIHEDRAL>
-8.86644

>  <SCORE.INTRA.DIHEDRAL.0>
16.4846

>  <SCORE.INTRA.POLAR>
0

>  <SCORE.INTRA.POLAR.0>
0

>  <SCORE.INTRA.REPUL>
0

>  <SCORE.INTRA.REPUL.0>
0

>  <SCORE.INTRA.SOLV>
1.48043

>  <SCORE.INTRA.SOLV.lig_0>
-82.6983

>  <SCORE.INTRA.VDW>
-0.984009

>  <SCORE.INTRA.VDW.0>
-2.11466

>  <SCORE.INTRA.norm>
-0.179885

>  <SCORE.RESTR>
0

>  <SCORE.RESTR.CAVITY>
0

>  <SCORE.RESTR.norm>
0

>  <SCORE.SYSTEM>
0

>  <SCORE.SYSTEM.CONST>
0

>  <SCORE.SYSTEM.DIHEDRAL>
0

>  <SCORE.SYSTEM.SOLV>
0

>  <SCORE.SYSTEM.norm>
0

>  <SCORE.heavy>
26

>  <SCORE.norm>
-0.655059

>  <RMSD>
8.932

$$$$
ligand
 OpenBabel11021811423D
libRbt.so/2013.1/901 2013/11/27
 26 27  0  0  0  0  0  0  0  0999 V2000
   -1.5519  -11.0872  -97.8871 C   0  0  0  0  0  0  0  0  0  0  0  0
   -2.0818  -18.2159  -99.8695 C   0  0  0  0  0  0  0  0  0  0  0  0
    0.3238  -18.2939  -95.1117 P   0  0  2  0  0  0  0  0  0  0  0  0
   -1.3211  -16.0864  -94.8089 P   0  0  2  0  0  0  0  0  0  0  0  0
   -0.7750  -15.6840 -101.2235 C   0  0  0  0  0  0  0  0  0  0  0  0
   -0.0770  -13.4840 -100.3106 C   0  0  0  0  0  0  0  0  0  0  0  0
   -1.0121  -14.5109 -100.3144 C   0  0  0  0  0  0  0  0  0  0  0  0
   -2.1546  -14.3859  -99.5185 C   0  0  0  0  0  0  0  0  0  0  0  0
   -3.1244  -15.2984  -99.4507 N   0  0  0  0  0  0  0  0  0  0  0  0
   -2.3072  -13.2644  -98.7450 N   0  0  0  0  0  0  0  0  0  0  0  0
   -1.3602  -12.2793  -98.7472 C   0  0  0  0  0  0  0  0  0  0  0  0
   -0.2476  -12.3670  -99.5212 N   0  0  0  0  0  0  0  0  0  0  0  0
   -0.2434  -19.3857  -94.2260 O   0  5  0  0  0  0  0  0  0  0  0  0
   -1.4189  -16.4835  -93.3531 O   0  0  0  0  0  0  0  0  0  0  0  0
    1.8353  -18.1994  -99.7312 S   0  0  0  0  0  0  0  0  0  0  0  0
    1.2807  -16.8762 -100.5042 C   0  0  0  0  0  0  0  0  0  0  0  0
    1.4156  -17.6052  -94.2971 O   0  0  0  0  0  0  0  0  0  0  0  0
   -2.6531  -15.6116  -95.3529 O   0  5  0  0  0  0  0  0  0  0  0  0
   -0.0952  -16.7996 -100.6099 N   0  0  0  0  0  0  0  0  0  0  0  0
   -0.9188  -17.3980  -95.6207 O   0  0  0  0  0  0  0  0  0  0  0  0
   -0.2746  -14.9979  -94.9345 O   0  0  0  0  0  0  0  0  0  0  0  0
   -0.6446  -17.9026 -100.0041 C   0  0  1  0  0  0  0  0  0  0  0  0
    0.3533  -18.7390  -99.4797 C   0  0  2  0  0  0  0  0  0  0  0  0
    0.3605  -20.0406  -98.7166 C   0  0  0  0  0  0  0  0  0  0  0  0
   -0.1742  -19.8543  -97.2926 C   0  0  0  0  0  0  0  0  0  0  0  0
    0.6607  -18.9424  -96.5894 O   0  0  0  0  0  0  0  0  0  0  0  0
  1 11  1  0  0  0  0
  3 13  1  1  0  0  0
  3 17  2  0  0  0  0
  3 20  1  0  0  0  0
  3 26  1  0  0  0  0
  4 14  1  1  0  0  0
  4 18  1  0  0  0  0
  4 21  2  0  0  0  0
  4 20  1  0  0  0  0
  5 19  1  0  0  0  0
  5  7  1  0  0  0  0
  6  7  2  0  0  0  0
  6 12  1  0  0  0  0
  7  8  1  0  0  0  0
  8  9  1  0  0  0  0
  8 10  2  0  0  0  0
 10 11  1  0  0  0  0
 11 12  2  0  0  0  0
 15 23  1  0  0  0  0
 15 16  1  0  0  0  0
 16 19  1  0  0  0  0
 19 22  1  0  0  0  0
 22  2  1  1  0  0  0
 22 23  1  0  0  0  0
 23 24  1  1  0  0  0
 24 25  1  0  0  0  0
 25 26  1  0  0  0  0
M  CHG  2  13  -1  18  -1
M  END
>  <CHROM.1>
93.82232154,-84.35773723,93.90832501,-49.46483952,109.95154993,-61.36641280
170.49322488,42.18255214,-0.51200409,-16.50459186,-97.60848603,2.04373800
1.19061934,-1.25473299

>  <Name>
ligand

>  <RI>
0

>  <Rbt.Current_Directory>
/home/itssahil/PROJECTS/Mol_Feturizer/New_Systems/rnas/2CKY

>  <Rbt.Executable>
rbdock ($Id: //depot/dev/client3/rdock/2013.1/src/exe/rbdock.cxx#4 $)

>  <Rbt.Library>
libRbt.so (2013.1, Build901 2013/11/27)

>  <Rbt.Parameter_File>
/export/apps/rDock/src/rDock_2013.1_src/data/scripts/dock_solv.prm

>  <Rbt.Receptor>
prm/pocket_docking_5.prm

>  <SCORE>
-16.1372

>  <SCORE.INTER>
-10.2556

>  <SCORE.INTER.CONST>
1

>  <SCORE.INTER.POLAR>
0

>  <SCORE.INTER.ROT>
8

>  <SCORE.INTER.SOLV>
15.0783

>  <SCORE.INTER.VDW>
-20.7965

>  <SCORE.INTER.norm>
-0.394446

>  <SCORE.INTRA>
-5.88159

>  <SCORE.INTRA.DIHEDRAL>
-9.68523

>  <SCORE.INTRA.DIHEDRAL.0>
16.4846

>  <SCORE.INTRA.POLAR>
0

>  <SCORE.INTRA.POLAR.0>
0

>  <SCORE.INTRA.REPUL>
0

>  <SCORE.INTRA.REPUL.0>
0

>  <SCORE.INTRA.SOLV>
2.36933

>  <SCORE.INTRA.SOLV.lig_0>
-82.6983

>  <SCORE.INTRA.VDW>
-2.22365

>  <SCORE.INTRA.VDW.0>
-2.11466

>  <SCORE.INTRA.norm>
-0.226215

>  <SCORE.RESTR>
0

>  <SCORE.RESTR.CAVITY>
0

>  <SCORE.RESTR.norm>
0

>  <SCORE.SYSTEM>
0

>  <SCORE.SYSTEM.CONST>
0

>  <SCORE.SYSTEM.DIHEDRAL>
0

>  <SCORE.SYSTEM.SOLV>
0

>  <SCORE.SYSTEM.norm>
0

>  <SCORE.heavy>
26

>  <SCORE.norm>
-0.620661

>  <RMSD>
8.938

$$$$
ligand
 OpenBabel11021811423D
libRbt.so/2013.1/901 2013/11/27
 26 27  0  0  0  0  0  0  0  0999 V2000
   -2.7152  -14.1984  -99.7084 C   0  0  0  0  0  0  0  0  0  0  0  0
    3.3262  -16.1312 -100.0721 C   0  0  0  0  0  0  0  0  0  0  0  0
    3.6269  -15.5308  -94.1343 P   0  0  2  0  0  0  0  0  0  0  0  0
    2.6502  -13.0686  -94.9431 P   0  0  2  0  0  0  0  0  0  0  0  0
    2.8098  -13.0989 -100.7720 C   0  0  0  0  0  0  0  0  0  0  0  0
    0.7190  -14.3932 -101.1092 C   0  0  0  0  0  0  0  0  0  0  0  0
    1.3545  -13.3320 -100.4776 C   0  0  0  0  0  0  0  0  0  0  0  0
    0.6332  -12.5638  -99.5591 C   0  0  0  0  0  0  0  0  0  0  0  0
    1.1396  -11.5315  -98.8840 N   0  0  0  0  0  0  0  0  0  0  0  0
   -0.6827  -12.8686  -99.3248 N   0  0  0  0  0  0  0  0  0  0  0  0
   -1.2866  -13.9069  -99.9763 C   0  0  0  0  0  0  0  0  0  0  0  0
   -0.6067  -14.6793 -100.8627 N   0  0  0  0  0  0  0  0  0  0  0  0
    2.2196  -15.9911  -94.4591 O   0  5  0  0  0  0  0  0  0  0  0  0
    2.8758  -13.5945  -96.3429 O   0  0  0  0  0  0  0  0  0  0  0  0
    5.4102  -13.6320  -97.8872 S   0  0  0  0  0  0  0  0  0  0  0  0
    4.4875  -12.8261  -98.9621 C   0  0  0  0  0  0  0  0  0  0  0  0
    4.0824  -16.3579  -92.9350 O   0  0  0  0  0  0  0  0  0  0  0  0
    3.0760  -11.6206  -94.8111 O   0  5  0  0  0  0  0  0  0  0  0  0
    3.7209  -13.6287  -99.7858 N   0  0  0  0  0  0  0  0  0  0  0  0
    3.5787  -13.9255  -93.9712 O   0  0  0  0  0  0  0  0  0  0  0  0
    1.1807  -13.2256  -94.6085 O   0  0  0  0  0  0  0  0  0  0  0  0
    3.9499  -14.9420  -99.4570 C   0  0  1  0  0  0  0  0  0  0  0  0
    4.8740  -15.0444  -98.4053 C   0  0  2  0  0  0  0  0  0  0  0  0
    5.4843  -16.1859  -97.6301 C   0  0  0  0  0  0  0  0  0  0  0  0
    4.5962  -16.5959  -96.4506 C   0  0  0  0  0  0  0  0  0  0  0  0
    4.5068  -15.5169  -95.5283 O   0  0  0  0  0  0  0  0  0  0  0  0
  1 11  1  0  0  0  0
  3 13  1  6  0  0  0
  3 17  2  0  0  0  0
  3 20  1  0  0  0  0
  3 26  1  0  0  0  0
  4 14  1  6  0  0  0
  4 18  1  0  0  0  0
  4 21  2  0  0  0  0
  4 20  1  0  0  0  0
  5 19  1  0  0  0  0
  5  7  1  0  0  0  0
  6  7  2  0  0  0  0
  6 12  1  0  0  0  0
  7  8  1  0  0  0  0
  8  9  1  0  0  0  0
  8 10  2  0  0  0  0
 10 11  1  0  0  0  0
 11 12  2  0  0  0  0
 15 23  1  0  0  0  0
 15 16  1  0  0  0  0
 16 19  1  0  0  0  0
 19 22  1  0  0  0  0
 22  2  1  1  0  0  0
 22 23  1  0  0  0  0
 23 24  1  1  0  0  0
 24 25  1  0  0  0  0
 25 26  1  0  0  0  0
M  CHG  2  13  -1  18  -1
M  END
>  <CHROM.1>
-38.30318737,-111.70596848,-98.66382731,-45.33430170,93.18923588,-63.85567714
178.85198235,-50.50568720,2.69963073,-14.17673576,-97.32291865,2.14747986
0.31127033,-1.54355459

>  <Name>
ligand

>  <RI>
0

>  <Rbt.Current_Directory>
/home/itssahil/PROJECTS/Mol_Feturizer/New_Systems/rnas/2CKY

>  <Rbt.Executable>
rbdock ($Id: //depot/dev/client3/rdock/2013.1/src/exe/rbdock.cxx#4 $)

>  <Rbt.Library>
libRbt.so (2013.1, Build901 2013/11/27)

>  <Rbt.Parameter_File>
/export/apps/rDock/src/rDock_2013.1_src/data/scripts/dock_solv.prm

>  <Rbt.Receptor>
prm/pocket_docking_5.prm

>  <SCORE>
-19.1258

>  <SCORE.INTER>
-10.8346

>  <SCORE.INTER.CONST>
1

>  <SCORE.INTER.POLAR>
0

>  <SCORE.INTER.ROT>
8

>  <SCORE.INTER.SOLV>
7.79612

>  <SCORE.INTER.VDW>
-18.7551

>  <SCORE.INTER.norm>
-0.416715

>  <SCORE.INTRA>
-8.29119

>  <SCORE.INTRA.DIHEDRAL>
-10.5861

>  <SCORE.INTRA.DIHEDRAL.0>
16.4846

>  <SCORE.INTRA.POLAR>
0

>  <SCORE.INTRA.POLAR.0>
0

>  <SCORE.INTRA.REPUL>
0

>  <SCORE.INTRA.REPUL.0>
0

>  <SCORE.INTRA.SOLV>
0.686313

>  <SCORE.INTRA.SOLV.lig_0>
-82.6983

>  <SCORE.INTRA.VDW>
-3.3413

>  <SCORE.INTRA.VDW.0>
-2.11466

>  <SCORE.INTRA.norm>
-0.318892

>  <SCORE.RESTR>
0

>  <SCORE.RESTR.CAVITY>
0

>  <SCORE.RESTR.norm>
0

>  <SCORE.SYSTEM>
0

>  <SCORE.SYSTEM.CONST>
0

>  <SCORE.SYSTEM.DIHEDRAL>
0

>  <SCORE.SYSTEM.SOLV>
0

>  <SCORE.SYSTEM.norm>
0

>  <SCORE.heavy>
26

>  <SCORE.norm>
-0.735606

>  <RMSD>
8.940

$$$$
ligand
 OpenBabel11021811423D
libRbt.so/2013.1/901 2013/11/27
 26 27  0  0  0  0  0  0  0  0999 V2000
   -3.6838  -18.5899  -99.0527 C   0  0  0  0  0  0  0  0  0  0  0  0
   -0.1099  -11.2484  -98.3705 C   0  0  0  0  0  0  0  0  0  0  0  0
    1.1287  -13.4431  -93.5284 P   0  0  2  0  0  0  0  0  0  0  0  0
    2.8725  -12.9368  -91.4371 P   0  0  2  0  0  0  0  0  0  0  0  0
   -2.5788  -12.9707  -99.3137 C   0  0  0  0  0  0  0  0  0  0  0  0
   -4.0983  -14.9004  -98.9565 C   0  0  0  0  0  0  0  0  0  0  0  0
   -2.8128  -14.4530  -99.2331 C   0  0  0  0  0  0  0  0  0  0  0  0
   -1.8089  -15.3946  -99.4773 C   0  0  0  0  0  0  0  0  0  0  0  0
   -0.5444  -15.0845  -99.7652 N   0  0  0  0  0  0  0  0  0  0  0  0
   -2.1188  -16.7287  -99.4172 N   0  0  0  0  0  0  0  0  0  0  0  0
   -3.3886  -17.1389  -99.1233 C   0  0  0  0  0  0  0  0  0  0  0  0
   -4.3872  -16.2469  -98.8959 N   0  0  0  0  0  0  0  0  0  0  0  0
    0.2948  -14.6044  -93.0243 O   0  5  0  0  0  0  0  0  0  0  0  0
    2.8147  -12.1887  -90.1242 O   0  0  0  0  0  0  0  0  0  0  0  0
   -2.9045  -11.6209  -95.6475 S   0  0  0  0  0  0  0  0  0  0  0  0
   -3.3269  -12.3980  -97.0164 C   0  0  0  0  0  0  0  0  0  0  0  0
    2.2447  -14.0517  -94.3733 O   0  0  0  0  0  0  0  0  0  0  0  0
    4.0514  -12.4992  -92.2822 O   0  5  0  0  0  0  0  0  0  0  0  0
   -2.4025  -12.3140  -98.0404 N   0  0  0  0  0  0  0  0  0  0  0  0
    1.5484  -12.5626  -92.2421 O   0  0  0  0  0  0  0  0  0  0  0  0
    2.9532  -14.4194  -91.1353 O   0  0  0  0  0  0  0  0  0  0  0  0
   -1.3315  -11.5725  -97.6061 C   0  0  1  0  0  0  0  0  0  0  0  0
   -1.5176  -11.1464  -96.2817 C   0  0  2  0  0  0  0  0  0  0  0  0
   -0.7050  -10.3428  -95.2965 C   0  0  0  0  0  0  0  0  0  0  0  0
    0.5289  -11.1207  -94.8268 C   0  0  0  0  0  0  0  0  0  0  0  0
    0.1149  -12.3099  -94.1656 O   0  0  0  0  0  0  0  0  0  0  0  0
  1 11  1  0  0  0  0
  3 13  1  1  0  0  0
  3 17  2  0  0  0  0
  3 20  1  0  0  0  0
  3 26  1  0  0  0  0
  4 14  1  1  0  0  0
  4 18  1  0  0  0  0
  4 21  2  0  0  0  0
  4 20  1  0  0  0  0
  5 19  1  0  0  0  0
  5  7  1  0  0  0  0
  6  7  2  0  0  0  0
  6 12  1  0  0  0  0
  7  8  1  0  0  0  0
  8  9  1  0  0  0  0
  8 10  2  0  0  0  0
 10 11  1  0  0  0  0
 11 12  2  0  0  0  0
 15 23  1  0  0  0  0
 15 16  1  0  0  0  0
 16 19  1  0  0  0  0
 19 22  1  0  0  0  0
 22  2  1  1  0  0  0
 22 23  1  0  0  0  0
 23 24  1  1  0  0  0
 24 25  1  0  0  0  0
 25 26  1  0  0  0  0
M  CHG  2  13  -1  18  -1
M  END
>  <CHROM.1>
87.52265590,-55.35688953,81.74995056,-166.01223409,109.78976428,-61.48767773
178.97631228,-175.14459310,-0.46032644,-13.42269701,-95.60863641,-2.74731857
-0.87733866,0.18773973

>  <Name>
ligand

>  <RI>
0

>  <Rbt.Current_Directory>
/home/itssahil/PROJECTS/Mol_Feturizer/New_Systems/rnas/2CKY

>  <Rbt.Executable>
rbdock ($Id: //depot/dev/client3/rdock/2013.1/src/exe/rbdock.cxx#4 $)

>  <Rbt.Library>
libRbt.so (2013.1, Build901 2013/11/27)

>  <Rbt.Parameter_File>
/export/apps/rDock/src/rDock_2013.1_src/data/scripts/dock_solv.prm

>  <Rbt.Receptor>
prm/pocket_docking_7.prm

>  <SCORE>
-18.2331

>  <SCORE.INTER>
-12.2791

>  <SCORE.INTER.CONST>
1

>  <SCORE.INTER.POLAR>
0

>  <SCORE.INTER.ROT>
8

>  <SCORE.INTER.SOLV>
7.92921

>  <SCORE.INTER.VDW>
-19.7625

>  <SCORE.INTER.norm>
-0.472273

>  <SCORE.INTRA>
-5.95399

>  <SCORE.INTRA.DIHEDRAL>
-10.4435

>  <SCORE.INTRA.DIHEDRAL.0>
16.4846

>  <SCORE.INTRA.POLAR>
0

>  <SCORE.INTRA.POLAR.0>
0

>  <SCORE.INTRA.REPUL>
0

>  <SCORE.INTRA.REPUL.0>
0

>  <SCORE.INTRA.SOLV>
2.37813

>  <SCORE.INTRA.SOLV.lig_0>
-82.6983

>  <SCORE.INTRA.VDW>
-1.92133

>  <SCORE.INTRA.VDW.0>
-2.11466

>  <SCORE.INTRA.norm>
-0.229

>  <SCORE.RESTR>
0

>  <SCORE.RESTR.CAVITY>
0

>  <SCORE.RESTR.norm>
0

>  <SCORE.SYSTEM>
0

>  <SCORE.SYSTEM.CONST>
0

>  <SCORE.SYSTEM.DIHEDRAL>
0

>  <SCORE.SYSTEM.SOLV>
0

>  <SCORE.SYSTEM.norm>
0

>  <SCORE.heavy>
26

>  <SCORE.norm>
-0.701272

>  <RMSD>
8.952

$$$$
ligand
 OpenBabel11021811423D
libRbt.so/2013.1/901 2013/11/27
 26 27  0  0  0  0  0  0  0  0999 V2000
    0.0452   -9.4920  -98.1280 C   0  0  0  0  0  0  0  0  0  0  0  0
   -1.5007  -16.4331  -96.1921 C   0  0  0  0  0  0  0  0  0  0  0  0
   -2.1193  -21.4198  -97.9949 P   0  0  2  0  0  0  0  0  0  0  0  0
   -3.5956  -19.8360  -99.7219 P   0  0  2  0  0  0  0  0  0  0  0  0
   -2.4656  -14.6250  -98.5903 C   0  0  0  0  0  0  0  0  0  0  0  0
   -0.9062  -12.8595  -99.3723 C   0  0  0  0  0  0  0  0  0  0  0  0
   -1.8169  -13.2811  -98.4122 C   0  0  0  0  0  0  0  0  0  0  0  0
   -2.1309  -12.4203  -97.3564 C   0  0  0  0  0  0  0  0  0  0  0  0
   -2.9978  -12.7100  -96.3856 N   0  0  0  0  0  0  0  0  0  0  0  0
   -1.5168  -11.1964  -97.2903 N   0  0  0  0  0  0  0  0  0  0  0  0
   -0.6099  -10.8171  -98.2395 C   0  0  0  0  0  0  0  0  0  0  0  0
   -0.2962  -11.6265  -99.2841 N   0  0  0  0  0  0  0  0  0  0  0  0
   -1.3997  -22.7531  -98.0465 O   0  5  0  0  0  0  0  0  0  0  0  0
   -2.6600  -18.6547  -99.5955 O   0  0  0  0  0  0  0  0  0  0  0  0
    0.1093  -17.3903  -99.6352 S   0  0  0  0  0  0  0  0  0  0  0  0
   -0.9240  -16.1421  -99.8097 C   0  0  0  0  0  0  0  0  0  0  0  0
   -3.0957  -21.5047  -96.8248 O   0  0  0  0  0  0  0  0  0  0  0  0
   -4.6837  -19.8067  -98.6681 O   0  5  0  0  0  0  0  0  0  0  0  0
   -1.5491  -15.7388  -98.6449 N   0  0  0  0  0  0  0  0  0  0  0  0
   -2.7243  -21.1462  -99.4663 O   0  0  0  0  0  0  0  0  0  0  0  0
   -4.1981  -19.8173 -101.1121 O   0  0  0  0  0  0  0  0  0  0  0  0
   -1.1066  -16.5285  -97.6124 C   0  0  1  0  0  0  0  0  0  0  0  0
   -0.1752  -17.4757  -98.0659 C   0  0  2  0  0  0  0  0  0  0  0  0
    0.6399  -18.5656  -97.4145 C   0  0  0  0  0  0  0  0  0  0  0  0
   -0.2483  -19.7278  -96.9577 C   0  0  0  0  0  0  0  0  0  0  0  0
   -0.9948  -20.2163  -98.0654 O   0  0  0  0  0  0  0  0  0  0  0  0
  1 11  1  0  0  0  0
  3 13  1  6  0  0  0
  3 17  2  0  0  0  0
  3 20  1  0  0  0  0
  3 26  1  0  0  0  0
  4 14  1  1  0  0  0
  4 18  1  0  0  0  0
  4 21  2  0  0  0  0
  4 20  1  0  0  0  0
  5 19  1  0  0  0  0
  5  7  1  0  0  0  0
  6  7  2  0  0  0  0
  6 12  1  0  0  0  0
  7  8  1  0  0  0  0
  8  9  1  0  0  0  0
  8 10  2  0  0  0  0
 10 11  1  0  0  0  0
 11 12  2  0  0  0  0
 15 23  1  0  0  0  0
 15 16  1  0  0  0  0
 16 19  1  0  0  0  0
 19 22  1  0  0  0  0
 22  2  1  1  0  0  0
 22 23  1  0  0  0  0
 23 24  1  1  0  0  0
 24 25  1  0  0  0  0
 25 26  1  0  0  0  0
M  CHG  2  13  -1  18  -1
M  END
>  <CHROM.1>
177.57503277,-85.23590237,59.40725916,67.57216249,-110.49280676,55.89825393
-177.21243582,-82.37779956,-1.72568714,-17.17430482,-98.44749263,-1.39678836
0.48527619,3.11284489

>  <Name>
ligand

>  <RI>
0

>  <Rbt.Current_Directory>
/home/itssahil/PROJECTS/Mol_Feturizer/New_Systems/rnas/2CKY

>  <Rbt.Executable>
rbdock ($Id: //depot/dev/client3/rdock/2013.1/src/exe/rbdock.cxx#4 $)

>  <Rbt.Library>
libRbt.so (2013.1, Build901 2013/11/27)

>  <Rbt.Parameter_File>
/export/apps/rDock/src/rDock_2013.1_src/data/scripts/dock_solv.prm

>  <Rbt.Receptor>
prm/pocket_docking_8.prm

>  <SCORE>
-15.1436

>  <SCORE.INTER>
-5.93765

>  <SCORE.INTER.CONST>
1

>  <SCORE.INTER.POLAR>
0

>  <SCORE.INTER.ROT>
8

>  <SCORE.INTER.SOLV>
24.9863

>  <SCORE.INTER.VDW>
-21.2205

>  <SCORE.INTER.norm>
-0.228371

>  <SCORE.INTRA>
-9.20595

>  <SCORE.INTRA.DIHEDRAL>
-11.1952

>  <SCORE.INTRA.DIHEDRAL.0>
16.4846

>  <SCORE.INTRA.POLAR>
0

>  <SCORE.INTRA.POLAR.0>
0

>  <SCORE.INTRA.REPUL>
0

>  <SCORE.INTRA.REPUL.0>
0

>  <SCORE.INTRA.SOLV>
-0.459384

>  <SCORE.INTRA.SOLV.lig_0>
-82.6983

>  <SCORE.INTRA.VDW>
-3.37865

>  <SCORE.INTRA.VDW.0>
-2.11466

>  <SCORE.INTRA.norm>
-0.354075

>  <SCORE.RESTR>
0

>  <SCORE.RESTR.CAVITY>
0

>  <SCORE.RESTR.norm>
0

>  <SCORE.SYSTEM>
0

>  <SCORE.SYSTEM.CONST>
0

>  <SCORE.SYSTEM.DIHEDRAL>
0

>  <SCORE.SYSTEM.SOLV>
0

>  <SCORE.SYSTEM.norm>
0

>  <SCORE.heavy>
26

>  <SCORE.norm>
-0.582446

>  <RMSD>
8.966

$$$$
ligand
 OpenBabel11021811423D
libRbt.so/2013.1/901 2013/11/27
 26 27  0  0  0  0  0  0  0  0999 V2000
   -2.3370  -12.2543  -98.3993 C   0  0  0  0  0  0  0  0  0  0  0  0
    4.0732  -13.5730  -98.5241 C   0  0  0  0  0  0  0  0  0  0  0  0
    2.3117  -17.2341  -96.7772 P   0  0  2  0  0  0  0  0  0  0  0  0
    0.1782  -18.4970  -95.5427 P   0  0  2  0  0  0  0  0  0  0  0  0
    2.3972  -13.9121 -101.1750 C   0  0  0  0  0  0  0  0  0  0  0  0
    0.0909  -14.2886 -100.3384 C   0  0  0  0  0  0  0  0  0  0  0  0
    1.1701  -13.4226 -100.4584 C   0  0  0  0  0  0  0  0  0  0  0  0
    1.0911  -12.1598  -99.8640 C   0  0  0  0  0  0  0  0  0  0  0  0
    2.0662  -11.2513  -99.9017 N   0  0  0  0  0  0  0  0  0  0  0  0
   -0.0549  -11.8080  -99.1989 N   0  0  0  0  0  0  0  0  0  0  0  0
   -1.1082  -12.6743  -99.1143 C   0  0  0  0  0  0  0  0  0  0  0  0
   -1.0541  -13.9127  -99.6694 N   0  0  0  0  0  0  0  0  0  0  0  0
    1.7471  -15.8308  -96.6774 O   0  5  0  0  0  0  0  0  0  0  0  0
   -0.6210  -17.2315  -95.7582 O   0  0  0  0  0  0  0  0  0  0  0  0
    4.1836  -17.2000 -100.0059 S   0  0  0  0  0  0  0  0  0  0  0  0
    3.2506  -16.2304 -100.9254 C   0  0  0  0  0  0  0  0  0  0  0  0
    1.9996  -17.7223  -98.1893 O   0  0  0  0  0  0  0  0  0  0  0  0
   -0.1211  -19.1290  -94.1986 O   0  5  0  0  0  0  0  0  0  0  0  0
    3.1446  -14.9285 -100.4738 N   0  0  0  0  0  0  0  0  0  0  0  0
    1.7163  -18.0779  -95.5365 O   0  0  0  0  0  0  0  0  0  0  0  0
   -0.1434  -19.4588  -96.6684 O   0  0  0  0  0  0  0  0  0  0  0  0
    3.8904  -14.7985  -99.3282 C   0  0  1  0  0  0  0  0  0  0  0  0
    4.5116  -16.0113  -98.9910 C   0  0  2  0  0  0  0  0  0  0  0  0
    5.4355  -16.4649  -97.8877 C   0  0  0  0  0  0  0  0  0  0  0  0
    4.8234  -16.2058  -96.5070 C   0  0  0  0  0  0  0  0  0  0  0  0
    3.8626  -17.2140  -96.2186 O   0  0  0  0  0  0  0  0  0  0  0  0
  1 11  1  0  0  0  0
  3 13  1  1  0  0  0
  3 17  2  0  0  0  0
  3 20  1  0  0  0  0
  3 26  1  0  0  0  0
  4 14  1  6  0  0  0
  4 18  1  0  0  0  0
  4 21  2  0  0  0  0
  4 20  1  0  0  0  0
  5 19  1  0  0  0  0
  5  7  1  0  0  0  0
  6  7  2  0  0  0  0
  6 12  1  0  0  0  0
  7  8  1  0  0  0  0
  8  9  1  0  0  0  0
  8 10  2  0  0  0  0
 10 11  1  0  0  0  0
 11 12  2  0  0  0  0
 15 23  1  0  0  0  0
 15 16  1  0  0  0  0
 16 19  1  0  0  0  0
 19 22  1  0  0  0  0
 22  2  1  6  0  0  0
 22 23  1  0  0  0  0
 23 24  1  6  0  0  0
 24 25  1  0  0  0  0
 25 26  1  0  0  0  0
M  CHG  2  13  -1  18  -1
M  END
>  <CHROM.1>
71.74095144,112.91945776,-69.71089831,-53.63512753,-123.88361550,78.63407111
-80.82398093,-42.31182209,1.82247555,-15.82162659,-98.09568198,1.57424332
0.34010092,-0.65908840

>  <Name>
ligand

>  <RI>
0

>  <Rbt.Current_Directory>
/home/itssahil/PROJECTS/Mol_Feturizer/New_Systems/rnas/2CKY

>  <Rbt.Executable>
rbdock ($Id: //depot/dev/client3/rdock/2013.1/src/exe/rbdock.cxx#4 $)

>  <Rbt.Library>
libRbt.so (2013.1, Build901 2013/11/27)

>  <Rbt.Parameter_File>
/export/apps/rDock/src/rDock_2013.1_src/data/scripts/dock_solv.prm

>  <Rbt.Receptor>
prm/pocket_docking_4.prm

>  <SCORE>
-16.2741

>  <SCORE.INTER>
-11.4799

>  <SCORE.INTER.CONST>
1

>  <SCORE.INTER.POLAR>
0

>  <SCORE.INTER.ROT>
8

>  <SCORE.INTER.SOLV>
13.9005

>  <SCORE.INTER.VDW>
-21.2201

>  <SCORE.INTER.norm>
-0.441534

>  <SCORE.INTRA>
-4.79427

>  <SCORE.INTRA.DIHEDRAL>
-7.87553

>  <SCORE.INTRA.DIHEDRAL.0>
16.4846

>  <SCORE.INTRA.POLAR>
0

>  <SCORE.INTRA.POLAR.0>
0

>  <SCORE.INTRA.REPUL>
0

>  <SCORE.INTRA.REPUL.0>
0

>  <SCORE.INTRA.SOLV>
5.15144

>  <SCORE.INTRA.SOLV.lig_0>
-82.6983

>  <SCORE.INTRA.VDW>
-3.43223

>  <SCORE.INTRA.VDW.0>
-2.11466

>  <SCORE.INTRA.norm>
-0.184395

>  <SCORE.RESTR>
0

>  <SCORE.RESTR.CAVITY>
0

>  <SCORE.RESTR.norm>
0

>  <SCORE.SYSTEM>
0

>  <SCORE.SYSTEM.CONST>
0

>  <SCORE.SYSTEM.DIHEDRAL>
0

>  <SCORE.SYSTEM.SOLV>
0

>  <SCORE.SYSTEM.norm>
0

>  <SCORE.heavy>
26

>  <SCORE.norm>
-0.625929

>  <RMSD>
8.976

$$$$
ligand
 OpenBabel11021811423D
libRbt.so/2013.1/901 2013/11/27
 26 27  0  0  0  0  0  0  0  0999 V2000
    1.7086  -17.4461 -101.3898 C   0  0  0  0  0  0  0  0  0  0  0  0
   -3.2252  -14.9279  -96.3031 C   0  0  0  0  0  0  0  0  0  0  0  0
    1.2622  -11.2611  -94.8666 P   0  0  2  0  0  0  0  0  0  0  0  0
    1.0834   -8.5804  -95.5391 P   0  0  2  0  0  0  0  0  0  0  0  0
   -3.1335  -15.0650  -99.4533 C   0  0  0  0  0  0  0  0  0  0  0  0
   -0.9888  -14.9881 -100.7002 C   0  0  0  0  0  0  0  0  0  0  0  0
   -1.8897  -15.7409  -99.9582 C   0  0  0  0  0  0  0  0  0  0  0  0
   -1.5776  -17.0722  -99.6675 C   0  0  0  0  0  0  0  0  0  0  0  0
   -2.3568  -17.8861  -98.9546 N   0  0  0  0  0  0  0  0  0  0  0  0
   -0.4032  -17.5988 -100.1395 N   0  0  0  0  0  0  0  0  0  0  0  0
    0.4545  -16.8389 -100.8839 C   0  0  0  0  0  0  0  0  0  0  0  0
    0.1844  -15.5389 -101.1696 N   0  0  0  0  0  0  0  0  0  0  0  0
    1.2884  -10.7484  -93.4403 O   0  5  0  0  0  0  0  0  0  0  0  0
   -0.4228   -8.7122  -95.5658 O   0  0  0  0  0  0  0  0  0  0  0  0
   -2.4517  -11.4848  -98.0090 S   0  0  0  0  0  0  0  0  0  0  0  0
   -2.6330  -12.6547  -99.1291 C   0  0  0  0  0  0  0  0  0  0  0  0
    2.1356  -12.5128  -94.8882 O   0  0  0  0  0  0  0  0  0  0  0  0
    1.5870   -7.6632  -96.6349 O   0  5  0  0  0  0  0  0  0  0  0  0
   -2.9007  -13.9108  -98.6184 N   0  0  0  0  0  0  0  0  0  0  0  0
    1.6804  -10.0307  -95.8243 O   0  0  0  0  0  0  0  0  0  0  0  0
    1.4898   -8.0573  -94.1764 O   0  0  0  0  0  0  0  0  0  0  0  0
   -2.9493  -13.8273  -97.2487 C   0  0  1  0  0  0  0  0  0  0  0  0
   -2.7160  -12.5126  -96.8154 C   0  0  2  0  0  0  0  0  0  0  0  0
   -2.6631  -11.8266  -95.4727 C   0  0  0  0  0  0  0  0  0  0  0  0
   -1.3324  -12.0954  -94.7619 C   0  0  0  0  0  0  0  0  0  0  0  0
   -0.3060  -11.3219  -95.3711 O   0  0  0  0  0  0  0  0  0  0  0  0
  1 11  1  0  0  0  0
  3 13  1  1  0  0  0
  3 17  2  0  0  0  0
  3 20  1  0  0  0  0
  3 26  1  0  0  0  0
  4 14  1  6  0  0  0
  4 18  1  0  0  0  0
  4 21  2  0  0  0  0
  4 20  1  0  0  0  0
  5 19  1  0  0  0  0
  5  7  1  0  0  0  0
  6  7  2  0  0  0  0
  6 12  1  0  0  0  0
  7  8  1  0  0  0  0
  8  9  1  0  0  0  0
  8 10  2  0  0  0  0
 10 11  1  0  0  0  0
 11 12  2  0  0  0  0
 15 23  1  0  0  0  0
 15 16  1  0  0  0  0
 16 19  1  0  0  0  0
 19 22  1  0  0  0  0
 22  2  1  6  0  0  0
 22 23  1  0  0  0  0
 23 24  1  6  0  0  0
 24 25  1  0  0  0  0
 25 26  1  0  0  0  0
M  CHG  2  13  -1  18  -1
M  END
>  <CHROM.1>
-42.40909546,82.11126558,-57.66896599,-56.81670545,-102.15977141,74.85996780
176.96160606,-59.90489952,-0.55933750,-12.61267687,-97.20556365,-1.81973078
0.07576159,0.63920935

>  <Name>
ligand

>  <RI>
0

>  <Rbt.Current_Directory>
/home/itssahil/PROJECTS/Mol_Feturizer/New_Systems/rnas/2CKY

>  <Rbt.Executable>
rbdock ($Id: //depot/dev/client3/rdock/2013.1/src/exe/rbdock.cxx#4 $)

>  <Rbt.Library>
libRbt.so (2013.1, Build901 2013/11/27)

>  <Rbt.Parameter_File>
/export/apps/rDock/src/rDock_2013.1_src/data/scripts/dock_solv.prm

>  <Rbt.Receptor>
prm/pocket_docking_8.prm

>  <SCORE>
-19.3512

>  <SCORE.INTER>
-12.2733

>  <SCORE.INTER.CONST>
1

>  <SCORE.INTER.POLAR>
0

>  <SCORE.INTER.ROT>
8

>  <SCORE.INTER.SOLV>
4.82985

>  <SCORE.INTER.VDW>
-18.7255

>  <SCORE.INTER.norm>
-0.47205

>  <SCORE.INTRA>
-7.0779

>  <SCORE.INTRA.DIHEDRAL>
-10.4277

>  <SCORE.INTRA.DIHEDRAL.0>
16.4846

>  <SCORE.INTRA.POLAR>
0

>  <SCORE.INTRA.POLAR.0>
0

>  <SCORE.INTRA.REPUL>
0

>  <SCORE.INTRA.REPUL.0>
0

>  <SCORE.INTRA.SOLV>
0.30629

>  <SCORE.INTRA.SOLV.lig_0>
-82.6983

>  <SCORE.INTRA.VDW>
-2.01719

>  <SCORE.INTRA.VDW.0>
-2.11466

>  <SCORE.INTRA.norm>
-0.272227

>  <SCORE.RESTR>
0

>  <SCORE.RESTR.CAVITY>
0

>  <SCORE.RESTR.norm>
0

>  <SCORE.SYSTEM>
0

>  <SCORE.SYSTEM.CONST>
0

>  <SCORE.SYSTEM.DIHEDRAL>
0

>  <SCORE.SYSTEM.SOLV>
0

>  <SCORE.SYSTEM.norm>
0

>  <SCORE.heavy>
26

>  <SCORE.norm>
-0.744277

>  <RMSD>
8.985

$$$$
ligand
 OpenBabel11021811423D
libRbt.so/2013.1/901 2013/11/27
 26 27  0  0  0  0  0  0  0  0999 V2000
    3.3103  -12.0207 -100.1711 C   0  0  0  0  0  0  0  0  0  0  0  0
    1.3051  -17.5886  -99.6385 C   0  0  0  0  0  0  0  0  0  0  0  0
   -0.8599  -17.6720  -94.0287 P   0  0  2  0  0  0  0  0  0  0  0  0
   -1.9176  -15.4484  -95.2965 P   0  0  2  0  0  0  0  0  0  0  0  0
   -0.9365  -15.7934 -100.9438 C   0  0  0  0  0  0  0  0  0  0  0  0
    1.3501  -14.9334 -101.3823 C   0  0  0  0  0  0  0  0  0  0  0  0
    0.1548  -14.7919 -100.6893 C   0  0  0  0  0  0  0  0  0  0  0  0
   -0.0019  -13.6997  -99.8309 C   0  0  0  0  0  0  0  0  0  0  0  0
   -1.1060  -13.4536  -99.1251 N   0  0  0  0  0  0  0  0  0  0  0  0
    1.0343  -12.8142  -99.6846 N   0  0  0  0  0  0  0  0  0  0  0  0
    2.2061  -12.9906 -100.3651 C   0  0  0  0  0  0  0  0  0  0  0  0
    2.3814  -14.0340 -101.2166 N   0  0  0  0  0  0  0  0  0  0  0  0
   -1.3069  -18.6683  -92.9773 O   0  5  0  0  0  0  0  0  0  0  0  0
   -1.3469  -15.9778  -96.5929 O   0  0  0  0  0  0  0  0  0  0  0  0
   -2.2910  -18.3004  -98.2515 S   0  0  0  0  0  0  0  0  0  0  0  0
   -2.3291  -17.1153  -99.3696 C   0  0  0  0  0  0  0  0  0  0  0  0
    0.4238  -17.0378  -93.5000 O   0  0  0  0  0  0  0  0  0  0  0  0
   -0.9609  -14.4960  -94.6084 O   0  5  0  0  0  0  0  0  0  0  0  0
   -1.1002  -16.7881  -99.9108 N   0  0  0  0  0  0  0  0  0  0  0  0
   -2.1140  -16.7015  -94.3310 O   0  0  0  0  0  0  0  0  0  0  0  0
   -3.2305  -14.7570  -95.6033 O   0  0  0  0  0  0  0  0  0  0  0  0
   -0.1414  -17.5883  -99.3399 C   0  0  1  0  0  0  0  0  0  0  0  0
   -0.7102  -18.4681  -98.4056 C   0  0  2  0  0  0  0  0  0  0  0  0
   -0.1789  -19.5560  -97.5053 C   0  0  0  0  0  0  0  0  0  0  0  0
    0.2435  -18.9950  -96.1433 C   0  0  0  0  0  0  0  0  0  0  0  0
   -0.8853  -18.4175  -95.4989 O   0  0  0  0  0  0  0  0  0  0  0  0
  1 11  1  0  0  0  0
  3 13  1  1  0  0  0
  3 17  2  0  0  0  0
  3 20  1  0  0  0  0
  3 26  1  0  0  0  0
  4 14  1  6  0  0  0
  4 18  1  0  0  0  0
  4 21  2  0  0  0  0
  4 20  1  0  0  0  0
  5 19  1  0  0  0  0
  5  7  1  0  0  0  0
  6  7  2  0  0  0  0
  6 12  1  0  0  0  0
  7  8  1  0  0  0  0
  8  9  1  0  0  0  0
  8 10  2  0  0  0  0
 10 11  1  0  0  0  0
 11 12  2  0  0  0  0
 15 23  1  0  0  0  0
 15 16  1  0  0  0  0
 16 19  1  0  0  0  0
 19 22  1  0  0  0  0
 22  2  1  6  0  0  0
 22 23  1  0  0  0  0
 23 24  1  6  0  0  0
 24 25  1  0  0  0  0
 25 26  1  0  0  0  0
M  CHG  2  13  -1  18  -1
M  END
>  <CHROM.1>
174.03023945,131.89714646,103.43578662,54.38695368,-91.01899790,61.23417737
-178.54892999,-97.33797451,-0.54931824,-16.24058675,-97.45634404,-0.30237018
1.20944497,0.84512479

>  <Name>
ligand

>  <RI>
0

>  <Rbt.Current_Directory>
/home/itssahil/PROJECTS/Mol_Feturizer/New_Systems/rnas/2CKY

>  <Rbt.Executable>
rbdock ($Id: //depot/dev/client3/rdock/2013.1/src/exe/rbdock.cxx#4 $)

>  <Rbt.Library>
libRbt.so (2013.1, Build901 2013/11/27)

>  <Rbt.Parameter_File>
/export/apps/rDock/src/rDock_2013.1_src/data/scripts/dock_solv.prm

>  <Rbt.Receptor>
prm/pocket_docking_4.prm

>  <SCORE>
-17.6397

>  <SCORE.INTER>
-9.52713

>  <SCORE.INTER.CONST>
1

>  <SCORE.INTER.POLAR>
0

>  <SCORE.INTER.ROT>
8

>  <SCORE.INTER.SOLV>
14.8188

>  <SCORE.INTER.VDW>
-20.2243

>  <SCORE.INTER.norm>
-0.366428

>  <SCORE.INTRA>
-8.11253

>  <SCORE.INTRA.DIHEDRAL>
-9.94129

>  <SCORE.INTRA.DIHEDRAL.0>
16.4846

>  <SCORE.INTRA.POLAR>
0

>  <SCORE.INTRA.POLAR.0>
0

>  <SCORE.INTRA.REPUL>
0

>  <SCORE.INTRA.REPUL.0>
0

>  <SCORE.INTRA.SOLV>
0.36432

>  <SCORE.INTRA.SOLV.lig_0>
-82.6983

>  <SCORE.INTRA.VDW>
-3.32405

>  <SCORE.INTRA.VDW.0>
-2.11466

>  <SCORE.INTRA.norm>
-0.312021

>  <SCORE.RESTR>
0

>  <SCORE.RESTR.CAVITY>
0

>  <SCORE.RESTR.norm>
0

>  <SCORE.SYSTEM>
0

>  <SCORE.SYSTEM.CONST>
0

>  <SCORE.SYSTEM.DIHEDRAL>
0

>  <SCORE.SYSTEM.SOLV>
0

>  <SCORE.SYSTEM.norm>
0

>  <SCORE.heavy>
26

>  <SCORE.norm>
-0.678449

>  <RMSD>
8.995

$$$$
ligand
 OpenBabel11021811423D
libRbt.so/2013.1/901 2013/11/27
 26 27  0  0  0  0  0  0  0  0999 V2000
   -2.9452  -20.3128 -100.1915 C   0  0  0  0  0  0  0  0  0  0  0  0
   -2.4769  -11.7944  -98.1722 C   0  0  0  0  0  0  0  0  0  0  0  0
    1.0127  -13.6162  -93.4439 P   0  0  2  0  0  0  0  0  0  0  0  0
    2.0216  -12.2691  -91.2444 P   0  0  2  0  0  0  0  0  0  0  0  0
   -3.2049  -14.6603  -99.2713 C   0  0  0  0  0  0  0  0  0  0  0  0
   -4.1589  -16.9500  -99.1856 C   0  0  0  0  0  0  0  0  0  0  0  0
   -3.0793  -16.1388  -99.5100 C   0  0  0  0  0  0  0  0  0  0  0  0
   -1.9492  -16.7206 -100.0918 C   0  0  0  0  0  0  0  0  0  0  0  0
   -0.8607  -16.0424 -100.4565 N   0  0  0  0  0  0  0  0  0  0  0  0
   -1.9334  -18.0746 -100.3060 N   0  0  0  0  0  0  0  0  0  0  0  0
   -3.0034  -18.8500  -99.9582 C   0  0  0  0  0  0  0  0  0  0  0  0
   -4.1202  -18.3103  -99.4048 N   0  0  0  0  0  0  0  0  0  0  0  0
    1.0735  -15.1029  -93.1538 O   0  5  0  0  0  0  0  0  0  0  0  0
    2.9493  -13.4271  -90.9529 O   0  0  0  0  0  0  0  0  0  0  0  0
   -3.0044  -14.4739  -95.3606 S   0  0  0  0  0  0  0  0  0  0  0  0
   -3.2370  -15.1312  -96.8336 C   0  0  0  0  0  0  0  0  0  0  0  0
    2.2792  -13.2802  -94.2269 O   0  0  0  0  0  0  0  0  0  0  0  0
    1.4902  -11.6404  -89.9724 O   0  5  0  0  0  0  0  0  0  0  0  0
   -3.0805  -14.2556  -97.8914 N   0  0  0  0  0  0  0  0  0  0  0  0
    0.7724  -12.8642  -92.0358 O   0  0  0  0  0  0  0  0  0  0  0  0
    2.7810  -11.2484  -92.0674 O   0  0  0  0  0  0  0  0  0  0  0  0
   -2.7517  -13.0189  -97.3933 C   0  0  1  0  0  0  0  0  0  0  0  0
   -2.6806  -13.0429  -95.9916 C   0  0  2  0  0  0  0  0  0  0  0  0
   -2.3581  -12.0274  -94.9233 C   0  0  0  0  0  0  0  0  0  0  0  0
   -0.8588  -12.0088  -94.6069 C   0  0  0  0  0  0  0  0  0  0  0  0
   -0.4749  -13.2649  -94.0612 O   0  0  0  0  0  0  0  0  0  0  0  0
  1 11  1  0  0  0  0
  3 13  1  1  0  0  0
  3 17  2  0  0  0  0
  3 20  1  0  0  0  0
  3 26  1  0  0  0  0
  4 14  1  1  0  0  0
  4 18  1  0  0  0  0
  4 21  2  0  0  0  0
  4 20  1  0  0  0  0
  5 19  1  0  0  0  0
  5  7  1  0  0  0  0
  6  7  2  0  0  0  0
  6 12  1  0  0  0  0
  7  8  1  0  0  0  0
  8  9  1  0  0  0  0
  8 10  2  0  0  0  0
 10 11  1  0  0  0  0
 11 12  2  0  0  0  0
 15 23  1  0  0  0  0
 15 16  1  0  0  0  0
 16 19  1  0  0  0  0
 19 22  1  0  0  0  0
 22  2  1  6  0  0  0
 22 23  1  0  0  0  0
 23 24  1  6  0  0  0
 24 25  1  0  0  0  0
 25 26  1  0  0  0  0
M  CHG  2  13  -1  18  -1
M  END
>  <CHROM.1>
96.52365986,-18.66541891,76.16698549,-59.56361546,89.63156482,-63.94310636
-173.45633803,-171.93048617,-0.93374784,-14.34032810,-95.64651898,-2.23660997
-0.71710182,0.55838590

>  <Name>
ligand

>  <RI>
0

>  <Rbt.Current_Directory>
/home/itssahil/PROJECTS/Mol_Feturizer/New_Systems/rnas/2CKY

>  <Rbt.Executable>
rbdock ($Id: //depot/dev/client3/rdock/2013.1/src/exe/rbdock.cxx#4 $)

>  <Rbt.Library>
libRbt.so (2013.1, Build901 2013/11/27)

>  <Rbt.Parameter_File>
/export/apps/rDock/src/rDock_2013.1_src/data/scripts/dock_solv.prm

>  <Rbt.Receptor>
prm/pocket_docking_8.prm

>  <SCORE>
-20.0535

>  <SCORE.INTER>
-13.7881

>  <SCORE.INTER.CONST>
1

>  <SCORE.INTER.POLAR>
0

>  <SCORE.INTER.ROT>
8

>  <SCORE.INTER.SOLV>
10.2852

>  <SCORE.INTER.VDW>
-21.5538

>  <SCORE.INTER.norm>
-0.530312

>  <SCORE.INTRA>
-6.26544

>  <SCORE.INTRA.DIHEDRAL>
-9.53468

>  <SCORE.INTRA.DIHEDRAL.0>
16.4846

>  <SCORE.INTRA.POLAR>
0

>  <SCORE.INTRA.POLAR.0>
0

>  <SCORE.INTRA.REPUL>
0

>  <SCORE.INTRA.REPUL.0>
0

>  <SCORE.INTRA.SOLV>
-0.143528

>  <SCORE.INTRA.SOLV.lig_0>
-82.6983

>  <SCORE.INTRA.VDW>
-1.42634

>  <SCORE.INTRA.VDW.0>
-2.11466

>  <SCORE.INTRA.norm>
-0.240979

>  <SCORE.RESTR>
0

>  <SCORE.RESTR.CAVITY>
0

>  <SCORE.RESTR.norm>
0

>  <SCORE.SYSTEM>
0

>  <SCORE.SYSTEM.CONST>
0

>  <SCORE.SYSTEM.DIHEDRAL>
0

>  <SCORE.SYSTEM.SOLV>
0

>  <SCORE.SYSTEM.norm>
0

>  <SCORE.heavy>
26

>  <SCORE.norm>
-0.77129

>  <RMSD>
9.003

$$$$
ligand
 OpenBabel11021811423D
libRbt.so/2013.1/901 2013/11/27
 26 27  0  0  0  0  0  0  0  0999 V2000
   -0.1060  -15.3554 -101.5896 C   0  0  0  0  0  0  0  0  0  0  0  0
   -2.2478  -13.3884  -95.4668 C   0  0  0  0  0  0  0  0  0  0  0  0
    2.8542  -13.7486  -94.3121 P   0  0  2  0  0  0  0  0  0  0  0  0
    3.9825  -15.7288  -92.7386 P   0  0  2  0  0  0  0  0  0  0  0  0
   -2.4157  -11.5234  -98.0055 C   0  0  0  0  0  0  0  0  0  0  0  0
   -2.5328  -13.5484  -99.4359 C   0  0  0  0  0  0  0  0  0  0  0  0
   -1.7584  -12.5160  -98.9228 C   0  0  0  0  0  0  0  0  0  0  0  0
   -0.4225  -12.4124  -99.3215 C   0  0  0  0  0  0  0  0  0  0  0  0
    0.4117  -11.4586  -98.9066 N   0  0  0  0  0  0  0  0  0  0  0  0
    0.0868  -13.3428 -100.1901 N   0  0  0  0  0  0  0  0  0  0  0  0
   -0.6946  -14.3592 -100.6630 C   0  0  0  0  0  0  0  0  0  0  0  0
   -1.9993  -14.4764 -100.3043 N   0  0  0  0  0  0  0  0  0  0  0  0
    2.8814  -14.4748  -95.6425 O   0  5  0  0  0  0  0  0  0  0  0  0
    4.6457  -16.1862  -94.0182 O   0  0  0  0  0  0  0  0  0  0  0  0
   -0.3169  -10.0012  -95.0650 S   0  0  0  0  0  0  0  0  0  0  0  0
   -1.0056  -10.1003  -96.5388 C   0  0  0  0  0  0  0  0  0  0  0  0
    4.0907  -12.8540  -94.2868 O   0  0  0  0  0  0  0  0  0  0  0  0
    3.4841  -16.8984  -91.9143 O   0  5  0  0  0  0  0  0  0  0  0  0
   -1.7038  -11.2693  -96.7759 N   0  0  0  0  0  0  0  0  0  0  0  0
    2.7078  -14.8690  -93.1592 O   0  0  0  0  0  0  0  0  0  0  0  0
    4.9849  -14.9096  -91.9512 O   0  0  0  0  0  0  0  0  0  0  0  0
   -1.6295  -12.0605  -95.6561 C   0  0  1  0  0  0  0  0  0  0  0  0
   -0.8807  -11.4357  -94.6464 C   0  0  2  0  0  0  0  0  0  0  0  0
   -0.4825  -11.7967  -93.2366 C   0  0  0  0  0  0  0  0  0  0  0  0
    1.0149  -12.1085  -93.1433 C   0  0  0  0  0  0  0  0  0  0  0  0
    1.3500  -13.1094  -94.0966 O   0  0  0  0  0  0  0  0  0  0  0  0
  1 11  1  0  0  0  0
  3 13  1  6  0  0  0
  3 17  2  0  0  0  0
  3 20  1  0  0  0  0
  3 26  1  0  0  0  0
  4 14  1  6  0  0  0
  4 18  1  0  0  0  0
  4 21  2  0  0  0  0
  4 20  1  0  0  0  0
  5 19  1  0  0  0  0
  5  7  1  0  0  0  0
  6  7  2  0  0  0  0
  6 12  1  0  0  0  0
  7  8  1  0  0  0  0
  8  9  1  0  0  0  0
  8 10  2  0  0  0  0
 10 11  1  0  0  0  0
 11 12  2  0  0  0  0
 15 23  1  0  0  0  0
 15 16  1  0  0  0  0
 16 19  1  0  0  0  0
 19 22  1  0  0  0  0
 22  2  1  1  0  0  0
 22 23  1  0  0  0  0
 23 24  1  1  0  0  0
 24 25  1  0  0  0  0
 25 26  1  0  0  0  0
M  CHG  2  13  -1  18  -1
M  END
>  <CHROM.1>
77.07824096,106.29455871,130.75201316,-46.25597953,-71.18489014,-53.98712427
-179.08454154,-164.42907121,0.89425040,-13.29726650,-95.76107291,-2.64062917
-0.78391371,1.03676820

>  <Name>
ligand

>  <RI>
0

>  <Rbt.Current_Directory>
/home/itssahil/PROJECTS/Mol_Feturizer/New_Systems/rnas/2CKY

>  <Rbt.Executable>
rbdock ($Id: //depot/dev/client3/rdock/2013.1/src/exe/rbdock.cxx#4 $)

>  <Rbt.Library>
libRbt.so (2013.1, Build901 2013/11/27)

>  <Rbt.Parameter_File>
/export/apps/rDock/src/rDock_2013.1_src/data/scripts/dock_solv.prm

>  <Rbt.Receptor>
prm/pocket_docking_7.prm

>  <SCORE>
-18.1995

>  <SCORE.INTER>
-11.9332

>  <SCORE.INTER.CONST>
1

>  <SCORE.INTER.POLAR>
0

>  <SCORE.INTER.ROT>
8

>  <SCORE.INTER.SOLV>
11.716

>  <SCORE.INTER.VDW>
-20.7942

>  <SCORE.INTER.norm>
-0.45897

>  <SCORE.INTRA>
-6.26624

>  <SCORE.INTRA.DIHEDRAL>
-9.99686

>  <SCORE.INTRA.DIHEDRAL.0>
16.4846

>  <SCORE.INTRA.POLAR>
0

>  <SCORE.INTRA.POLAR.0>
0

>  <SCORE.INTRA.REPUL>
0

>  <SCORE.INTRA.REPUL.0>
0

>  <SCORE.INTRA.SOLV>
1.21506

>  <SCORE.INTRA.SOLV.lig_0>
-82.6983

>  <SCORE.INTRA.VDW>
-1.87534

>  <SCORE.INTRA.VDW.0>
-2.11466

>  <SCORE.INTRA.norm>
-0.241009

>  <SCORE.RESTR>
0

>  <SCORE.RESTR.CAVITY>
0

>  <SCORE.RESTR.norm>
0

>  <SCORE.SYSTEM>
0

>  <SCORE.SYSTEM.CONST>
0

>  <SCORE.SYSTEM.DIHEDRAL>
0

>  <SCORE.SYSTEM.SOLV>
0

>  <SCORE.SYSTEM.norm>
0

>  <SCORE.heavy>
26

>  <SCORE.norm>
-0.699979

>  <RMSD>
9.045

$$$$
ligand
 OpenBabel11021811423D
libRbt.so/2013.1/901 2013/11/27
 26 27  0  0  0  0  0  0  0  0999 V2000
    1.7092  -17.6846 -101.3210 C   0  0  0  0  0  0  0  0  0  0  0  0
   -3.2470  -14.8974  -96.6580 C   0  0  0  0  0  0  0  0  0  0  0  0
   -0.1661  -14.6720  -93.9360 P   0  0  2  0  0  0  0  0  0  0  0  0
   -0.3500  -17.3758  -93.3649 P   0  0  2  0  0  0  0  0  0  0  0  0
   -3.0195  -14.8207  -99.8034 C   0  0  0  0  0  0  0  0  0  0  0  0
   -0.8300  -14.9985 -100.9587 C   0  0  0  0  0  0  0  0  0  0  0  0
   -1.8092  -15.6209 -100.1952 C   0  0  0  0  0  0  0  0  0  0  0  0
   -1.6038  -16.9398  -99.7799 C   0  0  0  0  0  0  0  0  0  0  0  0
   -2.4649  -17.6337  -99.0350 N   0  0  0  0  0  0  0  0  0  0  0  0
   -0.4532  -17.5840 -100.1546 N   0  0  0  0  0  0  0  0  0  0  0  0
    0.4835  -16.9519 -100.9229 C   0  0  0  0  0  0  0  0  0  0  0  0
    0.3176  -15.6665 -101.3287 N   0  0  0  0  0  0  0  0  0  0  0  0
    0.9319  -14.9107  -94.9536 O   0  5  0  0  0  0  0  0  0  0  0  0
    0.6820  -17.7419  -94.4078 O   0  0  0  0  0  0  0  0  0  0  0  0
   -2.2064  -11.3956  -98.0784 S   0  0  0  0  0  0  0  0  0  0  0  0
   -2.4013  -12.4723  -99.2862 C   0  0  0  0  0  0  0  0  0  0  0  0
    0.5259  -14.1886  -92.6642 O   0  0  0  0  0  0  0  0  0  0  0  0
   -1.4374  -18.4253  -93.2572 O   0  5  0  0  0  0  0  0  0  0  0  0
   -2.7613  -13.7429  -98.8788 N   0  0  0  0  0  0  0  0  0  0  0  0
   -1.0423  -16.0252  -93.8524 O   0  0  0  0  0  0  0  0  0  0  0  0
    0.3584  -17.2030  -92.0367 O   0  0  0  0  0  0  0  0  0  0  0  0
   -2.8675  -13.7520  -97.5098 C   0  0  1  0  0  0  0  0  0  0  0  0
   -2.5815  -12.4865  -96.9738 C   0  0  2  0  0  0  0  0  0  0  0  0
   -2.5518  -11.8995  -95.5842 C   0  0  0  0  0  0  0  0  0  0  0  0
   -1.3085  -12.3559  -94.8133 C   0  0  0  0  0  0  0  0  0  0  0  0
   -1.3480  -13.7677  -94.6452 O   0  0  0  0  0  0  0  0  0  0  0  0
  1 11  1  0  0  0  0
  3 13  1  6  0  0  0
  3 17  2  0  0  0  0
  3 20  1  0  0  0  0
  3 26  1  0  0  0  0
  4 14  1  6  0  0  0
  4 18  1  0  0  0  0
  4 21  2  0  0  0  0
  4 20  1  0  0  0  0
  5 19  1  0  0  0  0
  5  7  1  0  0  0  0
  6  7  2  0  0  0  0
  6 12  1  0  0  0  0
  7  8  1  0  0  0  0
  8  9  1  0  0  0  0
  8 10  2  0  0  0  0
 10 11  1  0  0  0  0
 11 12  2  0  0  0  0
 15 23  1  0  0  0  0
 15 16  1  0  0  0  0
 16 19  1  0  0  0  0
 19 22  1  0  0  0  0
 22  2  1  6  0  0  0
 22 23  1  0  0  0  0
 23 24  1  6  0  0  0
 24 25  1  0  0  0  0
 25 26  1  0  0  0  0
M  CHG  2  13  -1  18  -1
M  END
>  <CHROM.1>
62.24193902,88.04222106,-67.40016097,-65.51405735,-105.22038808,-63.01089263
176.80434552,-80.69092705,-1.05714596,-15.15122483,-96.67509939,-1.94440592
-1.15785038,1.36058749

>  <Name>
ligand

>  <RI>
0

>  <Rbt.Current_Directory>
/home/itssahil/PROJECTS/Mol_Feturizer/New_Systems/rnas/2CKY

>  <Rbt.Executable>
rbdock ($Id: //depot/dev/client3/rdock/2013.1/src/exe/rbdock.cxx#4 $)

>  <Rbt.Library>
libRbt.so (2013.1, Build901 2013/11/27)

>  <Rbt.Parameter_File>
/export/apps/rDock/src/rDock_2013.1_src/data/scripts/dock_solv.prm

>  <Rbt.Receptor>
prm/pocket_docking_8.prm

>  <SCORE>
-20.0648

>  <SCORE.INTER>
-13.276

>  <SCORE.INTER.CONST>
1

>  <SCORE.INTER.POLAR>
0

>  <SCORE.INTER.ROT>
8

>  <SCORE.INTER.SOLV>
10.5199

>  <SCORE.INTER.VDW>
-21.2906

>  <SCORE.INTER.norm>
-0.510616

>  <SCORE.INTRA>
-6.78876

>  <SCORE.INTRA.DIHEDRAL>
-11.1748

>  <SCORE.INTRA.DIHEDRAL.0>
16.4846

>  <SCORE.INTRA.POLAR>
0

>  <SCORE.INTRA.POLAR.0>
0

>  <SCORE.INTRA.REPUL>
0

>  <SCORE.INTRA.REPUL.0>
0

>  <SCORE.INTRA.SOLV>
1.76906

>  <SCORE.INTRA.SOLV.lig_0>
-82.6983

>  <SCORE.INTRA.VDW>
-2.08589

>  <SCORE.INTRA.VDW.0>
-2.11466

>  <SCORE.INTRA.norm>
-0.261106

>  <SCORE.RESTR>
0

>  <SCORE.RESTR.CAVITY>
0

>  <SCORE.RESTR.norm>
0

>  <SCORE.SYSTEM>
0

>  <SCORE.SYSTEM.CONST>
0

>  <SCORE.SYSTEM.DIHEDRAL>
0

>  <SCORE.SYSTEM.SOLV>
0

>  <SCORE.SYSTEM.norm>
0

>  <SCORE.heavy>
26

>  <SCORE.norm>
-0.771722

>  <RMSD>
9.066

$$$$
ligand
 OpenBabel11021811423D
libRbt.so/2013.1/901 2013/11/27
 26 27  0  0  0  0  0  0  0  0999 V2000
    2.0213  -18.1624 -101.3906 C   0  0  0  0  0  0  0  0  0  0  0  0
   -1.7130  -12.4374  -98.8647 C   0  0  0  0  0  0  0  0  0  0  0  0
   -0.0379  -15.1444  -93.6881 P   0  0  2  0  0  0  0  0  0  0  0  0
   -0.0923  -17.8165  -92.9618 P   0  0  2  0  0  0  0  0  0  0  0  0
   -2.6900  -15.1127 -100.2210 C   0  0  0  0  0  0  0  0  0  0  0  0
   -0.5104  -15.4453 -101.3609 C   0  0  0  0  0  0  0  0  0  0  0  0
   -1.4842  -15.9603 -100.5150 C   0  0  0  0  0  0  0  0  0  0  0  0
   -1.2775  -17.2144  -99.9329 C   0  0  0  0  0  0  0  0  0  0  0  0
   -2.1334  -17.8030  -99.0971 N   0  0  0  0  0  0  0  0  0  0  0  0
   -0.1310  -17.9050 -100.2298 N   0  0  0  0  0  0  0  0  0  0  0  0
    0.8002  -17.3808 -101.0815 C   0  0  0  0  0  0  0  0  0  0  0  0
    0.6330  -16.1588 -101.6500 N   0  0  0  0  0  0  0  0  0  0  0  0
    1.1279  -15.3674  -94.6311 O   0  5  0  0  0  0  0  0  0  0  0  0
    1.0572  -18.1425  -93.8886 O   0  0  0  0  0  0  0  0  0  0  0  0
   -3.4395  -14.9266  -96.3776 S   0  0  0  0  0  0  0  0  0  0  0  0
   -3.4210  -15.5408  -97.8871 C   0  0  0  0  0  0  0  0  0  0  0  0
    0.5510  -14.5494  -92.4117 O   0  0  0  0  0  0  0  0  0  0  0  0
   -1.1048  -18.9422  -92.9041 O   0  5  0  0  0  0  0  0  0  0  0  0
   -2.8372  -14.7256  -98.8383 N   0  0  0  0  0  0  0  0  0  0  0  0
   -0.8335  -16.5443  -93.5727 O   0  0  0  0  0  0  0  0  0  0  0  0
    0.4736  -17.5365  -91.5844 O   0  0  0  0  0  0  0  0  0  0  0  0
   -2.4077  -13.5738  -98.2264 C   0  0  1  0  0  0  0  0  0  0  0  0
   -2.6948  -13.5960  -96.8525 C   0  0  2  0  0  0  0  0  0  0  0  0
   -2.4570  -12.6533  -95.6987 C   0  0  0  0  0  0  0  0  0  0  0  0
   -1.1683  -13.0058  -94.9481 C   0  0  0  0  0  0  0  0  0  0  0  0
   -1.2310  -14.3573  -94.5095 O   0  0  0  0  0  0  0  0  0  0  0  0
  1 11  1  0  0  0  0
  3 13  1  6  0  0  0
  3 17  2  0  0  0  0
  3 20  1  0  0  0  0
  3 26  1  0  0  0  0
  4 14  1  6  0  0  0
  4 18  1  0  0  0  0
  4 21  2  0  0  0  0
  4 20  1  0  0  0  0
  5 19  1  0  0  0  0
  5  7  1  0  0  0  0
  6  7  2  0  0  0  0
  6 12  1  0  0  0  0
  7  8  1  0  0  0  0
  8  9  1  0  0  0  0
  8 10  2  0  0  0  0
 10 11  1  0  0  0  0
 11 12  2  0  0  0  0
 15 23  1  0  0  0  0
 15 16  1  0  0  0  0
 16 19  1  0  0  0  0
 19 22  1  0  0  0  0
 22  2  1  1  0  0  0
 22 23  1  0  0  0  0
 23 24  1  1  0  0  0
 24 25  1  0  0  0  0
 25 26  1  0  0  0  0
M  CHG  2  13  -1  18  -1
M  END
>  <CHROM.1>
62.71483994,-83.36647592,-116.50685988,-63.35705099,84.80543990,-56.43813650
178.78102615,-69.77037266,-0.93784795,-15.82009273,-96.53275571,-1.76337396
-0.96381746,1.47073110

>  <Name>
ligand

>  <RI>
0

>  <Rbt.Current_Directory>
/home/itssahil/PROJECTS/Mol_Feturizer/New_Systems/rnas/2CKY

>  <Rbt.Executable>
rbdock ($Id: //depot/dev/client3/rdock/2013.1/src/exe/rbdock.cxx#4 $)

>  <Rbt.Library>
libRbt.so (2013.1, Build901 2013/11/27)

>  <Rbt.Parameter_File>
/export/apps/rDock/src/rDock_2013.1_src/data/scripts/dock_solv.prm

>  <Rbt.Receptor>
prm/pocket_docking_5.prm

>  <SCORE>
-16.7959

>  <SCORE.INTER>
-10.0662

>  <SCORE.INTER.CONST>
1

>  <SCORE.INTER.POLAR>
0

>  <SCORE.INTER.ROT>
8

>  <SCORE.INTER.SOLV>
9.59572

>  <SCORE.INTER.VDW>
-18.8427

>  <SCORE.INTER.norm>
-0.387161

>  <SCORE.INTRA>
-6.72966

>  <SCORE.INTRA.DIHEDRAL>
-11.4795

>  <SCORE.INTRA.DIHEDRAL.0>
16.4846

>  <SCORE.INTRA.POLAR>
0

>  <SCORE.INTRA.POLAR.0>
0

>  <SCORE.INTRA.REPUL>
0

>  <SCORE.INTRA.REPUL.0>
0

>  <SCORE.INTRA.SOLV>
1.79258

>  <SCORE.INTRA.SOLV.lig_0>
-82.6983

>  <SCORE.INTRA.VDW>
-1.88621

>  <SCORE.INTRA.VDW.0>
-2.11466

>  <SCORE.INTRA.norm>
-0.258833

>  <SCORE.RESTR>
0

>  <SCORE.RESTR.CAVITY>
0

>  <SCORE.RESTR.norm>
0

>  <SCORE.SYSTEM>
0

>  <SCORE.SYSTEM.CONST>
0

>  <SCORE.SYSTEM.DIHEDRAL>
0

>  <SCORE.SYSTEM.SOLV>
0

>  <SCORE.SYSTEM.norm>
0

>  <SCORE.heavy>
26

>  <SCORE.norm>
-0.645994

>  <RMSD>
9.113

$$$$
ligand
 OpenBabel11021811423D
libRbt.so/2013.1/901 2013/11/27
 26 27  0  0  0  0  0  0  0  0999 V2000
    4.1508  -11.0883 -100.8967 C   0  0  0  0  0  0  0  0  0  0  0  0
   -0.3385  -11.5425  -94.8706 C   0  0  0  0  0  0  0  0  0  0  0  0
   -0.6716  -16.7520  -96.3816 P   0  0  2  0  0  0  0  0  0  0  0  0
    1.3786  -17.9785  -94.9806 P   0  0  2  0  0  0  0  0  0  0  0  0
   -0.0714   -9.5785  -97.3247 C   0  0  0  0  0  0  0  0  0  0  0  0
    0.7807  -10.6323  -99.4041 C   0  0  0  0  0  0  0  0  0  0  0  0
    1.0720   -9.9739  -98.2164 C   0  0  0  0  0  0  0  0  0  0  0  0
    2.4034   -9.6600  -97.9281 C   0  0  0  0  0  0  0  0  0  0  0  0
    2.8013   -9.0201  -96.8281 N   0  0  0  0  0  0  0  0  0  0  0  0
    3.3811  -10.0284  -98.8156 N   0  0  0  0  0  0  0  0  0  0  0  0
    3.0657  -10.6930  -99.9672 C   0  0  0  0  0  0  0  0  0  0  0  0
    1.7799  -10.9982 -100.2803 N   0  0  0  0  0  0  0  0  0  0  0  0
   -1.5540  -17.8358  -95.7943 O   0  5  0  0  0  0  0  0  0  0  0  0
    2.8637  -17.6978  -95.0286 O   0  0  0  0  0  0  0  0  0  0  0  0
   -3.0439  -12.1138  -97.6487 S   0  0  0  0  0  0  0  0  0  0  0  0
   -2.0531  -10.8848  -98.0537 C   0  0  0  0  0  0  0  0  0  0  0  0
   -0.4739  -17.1102  -97.8521 O   0  0  0  0  0  0  0  0  0  0  0  0
    0.9818  -19.0742  -95.9488 O   0  5  0  0  0  0  0  0  0  0  0  0
   -1.0683  -10.6032  -97.1257 N   0  0  0  0  0  0  0  0  0  0  0  0
    0.6399  -16.6449  -95.4465 O   0  0  0  0  0  0  0  0  0  0  0  0
    1.0141  -18.3628  -93.5610 O   0  0  0  0  0  0  0  0  0  0  0  0
   -1.1936  -11.4760  -96.0731 C   0  0  1  0  0  0  0  0  0  0  0  0
   -2.2647  -12.3602  -96.2765 C   0  0  2  0  0  0  0  0  0  0  0  0
   -2.8593  -13.5102  -95.5015 C   0  0  0  0  0  0  0  0  0  0  0  0
   -2.6150  -14.8459  -96.2118 C   0  0  0  0  0  0  0  0  0  0  0  0
   -1.2880  -15.2854  -95.9495 O   0  0  0  0  0  0  0  0  0  0  0  0
  1 11  1  0  0  0  0
  3 13  1  1  0  0  0
  3 17  2  0  0  0  0
  3 20  1  0  0  0  0
  3 26  1  0  0  0  0
  4 14  1  6  0  0  0
  4 18  1  0  0  0  0
  4 21  2  0  0  0  0
  4 20  1  0  0  0  0
  5 19  1  0  0  0  0
  5  7  1  0  0  0  0
  6  7  2  0  0  0  0
  6 12  1  0  0  0  0
  7  8  1  0  0  0  0
  8  9  1  0  0  0  0
  8 10  2  0  0  0  0
 10 11  1  0  0  0  0
 11 12  2  0  0  0  0
 15 23  1  0  0  0  0
 15 16  1  0  0  0  0
 16 19  1  0  0  0  0
 19 22  1  0  0  0  0
 22  2  1  6  0  0  0
 22 23  1  0  0  0  0
 23 24  1  6  0  0  0
 24 25  1  0  0  0  0
 25 26  1  0  0  0  0
M  CHG  2  13  -1  18  -1
M  END
>  <CHROM.1>
45.19593690,-79.49946716,45.32357339,141.13504350,68.38862255,79.62215797
172.77792341,-56.06743941,0.13649012,-13.78800982,-96.85958696,-1.45684419
-0.25557862,2.78087586

>  <Name>
ligand

>  <RI>
0

>  <Rbt.Current_Directory>
/home/itssahil/PROJECTS/Mol_Feturizer/New_Systems/rnas/2CKY

>  <Rbt.Executable>
rbdock ($Id: //depot/dev/client3/rdock/2013.1/src/exe/rbdock.cxx#4 $)

>  <Rbt.Library>
libRbt.so (2013.1, Build901 2013/11/27)

>  <Rbt.Parameter_File>
/export/apps/rDock/src/rDock_2013.1_src/data/scripts/dock_solv.prm

>  <Rbt.Receptor>
prm/pocket_docking_5.prm

>  <SCORE>
-13.447

>  <SCORE.INTER>
-9.91911

>  <SCORE.INTER.CONST>
1

>  <SCORE.INTER.POLAR>
0

>  <SCORE.INTER.ROT>
8

>  <SCORE.INTER.SOLV>
9.53786

>  <SCORE.INTER.VDW>
-18.7254

>  <SCORE.INTER.norm>
-0.381504

>  <SCORE.INTRA>
-3.54631

>  <SCORE.INTRA.DIHEDRAL>
-7.54781

>  <SCORE.INTRA.DIHEDRAL.0>
16.4846

>  <SCORE.INTRA.POLAR>
0

>  <SCORE.INTRA.POLAR.0>
0

>  <SCORE.INTRA.REPUL>
0

>  <SCORE.INTRA.REPUL.0>
0

>  <SCORE.INTRA.SOLV>
2.04379

>  <SCORE.INTRA.SOLV.lig_0>
-82.6983

>  <SCORE.INTRA.VDW>
-0.7943

>  <SCORE.INTRA.VDW.0>
-2.11466

>  <SCORE.INTRA.norm>
-0.136397

>  <SCORE.RESTR>
0.0184011

>  <SCORE.RESTR.CAVITY>
0.0184011

>  <SCORE.RESTR.norm>
0.000707734

>  <SCORE.SYSTEM>
0

>  <SCORE.SYSTEM.CONST>
0

>  <SCORE.SYSTEM.DIHEDRAL>
0

>  <SCORE.SYSTEM.SOLV>
0

>  <SCORE.SYSTEM.norm>
0

>  <SCORE.heavy>
26

>  <SCORE.norm>
-0.517193

>  <RMSD>
9.114

$$$$
ligand
 OpenBabel11021811423D
libRbt.so/2013.1/901 2013/11/27
 26 27  0  0  0  0  0  0  0  0999 V2000
    2.8507  -17.0724  -99.8596 C   0  0  0  0  0  0  0  0  0  0  0  0
    0.1166  -14.7723  -95.2942 C   0  0  0  0  0  0  0  0  0  0  0  0
    2.5929  -17.2859  -89.7145 P   0  0  2  0  0  0  0  0  0  0  0  0
    0.4435  -18.6638  -88.6412 P   0  0  2  0  0  0  0  0  0  0  0  0
   -1.4911  -17.3557  -96.1267 C   0  0  0  0  0  0  0  0  0  0  0  0
    0.8975  -17.6179  -96.7482 C   0  0  0  0  0  0  0  0  0  0  0  0
   -0.3822  -17.2414  -97.1348 C   0  0  0  0  0  0  0  0  0  0  0  0
   -0.5941  -16.8264  -98.4528 C   0  0  0  0  0  0  0  0  0  0  0  0
   -1.7781  -16.4549  -98.9405 N   0  0  0  0  0  0  0  0  0  0  0  0
    0.4697  -16.7851  -99.3166 N   0  0  0  0  0  0  0  0  0  0  0  0
    1.7215  -17.1431  -98.9018 C   0  0  0  0  0  0  0  0  0  0  0  0
    1.9543  -17.5641  -97.6317 N   0  0  0  0  0  0  0  0  0  0  0  0
    3.7924  -17.5985  -90.5871 O   0  5  0  0  0  0  0  0  0  0  0  0
   -0.6031  -17.8285  -89.3437 O   0  0  0  0  0  0  0  0  0  0  0  0
   -0.9279  -17.0248  -92.2613 S   0  0  0  0  0  0  0  0  0  0  0  0
   -1.4586  -17.6643  -93.6633 C   0  0  0  0  0  0  0  0  0  0  0  0
    3.1428  -16.6425  -88.4443 O   0  0  0  0  0  0  0  0  0  0  0  0
    0.8348  -18.0672  -87.3045 O   0  5  0  0  0  0  0  0  0  0  0  0
   -1.1437  -16.9310  -94.7917 N   0  0  0  0  0  0  0  0  0  0  0  0
    1.7431  -18.6502  -89.5641 O   0  0  0  0  0  0  0  0  0  0  0  0
   -0.1093  -20.0629  -88.4599 O   0  0  0  0  0  0  0  0  0  0  0  0
   -0.4341  -15.8192  -94.4097 C   0  0  1  0  0  0  0  0  0  0  0  0
   -0.2590  -15.7871  -93.0173 C   0  0  2  0  0  0  0  0  0  0  0  0
    0.4274  -14.8538  -92.0506 C   0  0  0  0  0  0  0  0  0  0  0  0
    1.7455  -15.4484  -91.5433 C   0  0  0  0  0  0  0  0  0  0  0  0
    1.4682  -16.5053  -90.6328 O   0  0  0  0  0  0  0  0  0  0  0  0
  1 11  1  0  0  0  0
  3 13  1  6  0  0  0
  3 17  2  0  0  0  0
  3 20  1  0  0  0  0
  3 26  1  0  0  0  0
  4 14  1  6  0  0  0
  4 18  1  0  0  0  0
  4 21  2  0  0  0  0
  4 20  1  0  0  0  0
  5 19  1  0  0  0  0
  5  7  1  0  0  0  0
  6  7  2  0  0  0  0
  6 12  1  0  0  0  0
  7  8  1  0  0  0  0
  8  9  1  0  0  0  0
  8 10  2  0  0  0  0
 10 11  1  0  0  0  0
 11 12  2  0  0  0  0
 15 23  1  0  0  0  0
 15 16  1  0  0  0  0
 16 19  1  0  0  0  0
 19 22  1  0  0  0  0
 22  2  1  6  0  0  0
 22 23  1  0  0  0  0
 23 24  1  6  0  0  0
 24 25  1  0  0  0  0
 25 26  1  0  0  0  0
M  CHG  2  13  -1  18  -1
M  END
>  <CHROM.1>
177.26723080,-133.83970666,41.59016022,69.77667572,74.57987237,-72.84776417
-171.91458002,-44.64492158,0.64479231,-17.16510578,-92.94855578,-1.67722579
0.08297748,1.69716572

>  <Name>
ligand

>  <RI>
0

>  <Rbt.Current_Directory>
/home/itssahil/PROJECTS/Mol_Feturizer/New_Systems/rnas/2CKY

>  <Rbt.Executable>
rbdock ($Id: //depot/dev/client3/rdock/2013.1/src/exe/rbdock.cxx#4 $)

>  <Rbt.Library>
libRbt.so (2013.1, Build901 2013/11/27)

>  <Rbt.Parameter_File>
/export/apps/rDock/src/rDock_2013.1_src/data/scripts/dock_solv.prm

>  <Rbt.Receptor>
prm/pocket_docking_3.prm

>  <SCORE>
-14.6287

>  <SCORE.INTER>
-7.83869

>  <SCORE.INTER.CONST>
1

>  <SCORE.INTER.POLAR>
0

>  <SCORE.INTER.ROT>
8

>  <SCORE.INTER.SOLV>
27.8941

>  <SCORE.INTER.VDW>
-23.4572

>  <SCORE.INTER.norm>
-0.301488

>  <SCORE.INTRA>
-6.79004

>  <SCORE.INTRA.DIHEDRAL>
-9.74157

>  <SCORE.INTRA.DIHEDRAL.0>
16.4846

>  <SCORE.INTRA.POLAR>
0

>  <SCORE.INTRA.POLAR.0>
0

>  <SCORE.INTRA.REPUL>
0

>  <SCORE.INTRA.REPUL.0>
0

>  <SCORE.INTRA.SOLV>
-0.587294

>  <SCORE.INTRA.SOLV.lig_0>
-82.6983

>  <SCORE.INTRA.VDW>
-1.62561

>  <SCORE.INTRA.VDW.0>
-2.11466

>  <SCORE.INTRA.norm>
-0.261156

>  <SCORE.RESTR>
0

>  <SCORE.RESTR.CAVITY>
0

>  <SCORE.RESTR.norm>
0

>  <SCORE.SYSTEM>
0

>  <SCORE.SYSTEM.CONST>
0

>  <SCORE.SYSTEM.DIHEDRAL>
0

>  <SCORE.SYSTEM.SOLV>
0

>  <SCORE.SYSTEM.norm>
0

>  <SCORE.heavy>
26

>  <SCORE.norm>
-0.562644

>  <RMSD>
9.128

$$$$
ligand
 OpenBabel11021811423D
libRbt.so/2013.1/901 2013/11/27
 26 27  0  0  0  0  0  0  0  0999 V2000
   -3.1825  -13.6661  -99.2714 C   0  0  0  0  0  0  0  0  0  0  0  0
    4.0558  -13.6094  -98.5664 C   0  0  0  0  0  0  0  0  0  0  0  0
    2.7239  -17.2065  -95.3343 P   0  0  2  0  0  0  0  0  0  0  0  0
    3.3370  -14.9362  -93.8712 P   0  0  2  0  0  0  0  0  0  0  0  0
    2.2358  -14.0269 -101.1090 C   0  0  0  0  0  0  0  0  0  0  0  0
    0.3659  -12.8384  -99.9905 C   0  0  0  0  0  0  0  0  0  0  0  0
    0.8135  -13.9900 -100.6248 C   0  0  0  0  0  0  0  0  0  0  0  0
   -0.0872  -15.0385 -100.8338 C   0  0  0  0  0  0  0  0  0  0  0  0
    0.2239  -16.1839 -101.4413 N   0  0  0  0  0  0  0  0  0  0  0  0
   -1.3773  -14.9060 -100.3895 N   0  0  0  0  0  0  0  0  0  0  0  0
   -1.7836  -13.7683  -99.7509 C   0  0  0  0  0  0  0  0  0  0  0  0
   -0.9346  -12.7280  -99.5470 N   0  0  0  0  0  0  0  0  0  0  0  0
    1.3787  -17.6650  -95.8616 O   0  5  0  0  0  0  0  0  0  0  0  0
    4.7602  -15.4457  -93.8317 O   0  0  0  0  0  0  0  0  0  0  0  0
    4.2456  -17.2265 -100.0641 S   0  0  0  0  0  0  0  0  0  0  0  0
    3.2122  -16.3020 -100.9206 C   0  0  0  0  0  0  0  0  0  0  0  0
    3.0168  -18.0626  -94.1050 O   0  0  0  0  0  0  0  0  0  0  0  0
    2.5523  -15.3643  -92.6479 O   0  5  0  0  0  0  0  0  0  0  0  0
    3.0729  -15.0068 -100.4589 N   0  0  0  0  0  0  0  0  0  0  0  0
    2.6402  -15.6063  -95.1388 O   0  0  0  0  0  0  0  0  0  0  0  0
    3.3768  -13.4253  -93.9780 O   0  0  0  0  0  0  0  0  0  0  0  0
    3.8816  -14.8419  -99.3616 C   0  0  1  0  0  0  0  0  0  0  0  0
    4.5794  -16.0239  -99.0676 C   0  0  2  0  0  0  0  0  0  0  0  0
    5.5907  -16.4334  -98.0255 C   0  0  0  0  0  0  0  0  0  0  0  0
    4.9881  -16.3899  -96.6172 C   0  0  0  0  0  0  0  0  0  0  0  0
    3.7872  -17.1517  -96.5928 O   0  0  0  0  0  0  0  0  0  0  0  0
  1 11  1  0  0  0  0
  3 13  1  6  0  0  0
  3 17  2  0  0  0  0
  3 20  1  0  0  0  0
  3 26  1  0  0  0  0
  4 14  1  1  0  0  0
  4 18  1  0  0  0  0
  4 21  2  0  0  0  0
  4 20  1  0  0  0  0
  5 19  1  0  0  0  0
  5  7  1  0  0  0  0
  6  7  2  0  0  0  0
  6 12  1  0  0  0  0
  7  8  1  0  0  0  0
  8  9  1  0  0  0  0
  8 10  2  0  0  0  0
 10 11  1  0  0  0  0
 11 12  2  0  0  0  0
 15 23  1  0  0  0  0
 15 16  1  0  0  0  0
 16 19  1  0  0  0  0
 19 22  1  0  0  0  0
 22  2  1  6  0  0  0
 22 23  1  0  0  0  0
 23 24  1  6  0  0  0
 24 25  1  0  0  0  0
 25 26  1  0  0  0  0
M  CHG  2  13  -1  18  -1
M  END
>  <CHROM.1>
140.95294733,89.79146613,115.59391627,51.24000508,-115.95307368,52.93540733
-171.56577937,158.74486153,2.40666186,-15.48635035,-97.61497857,2.12669830
0.45417306,-1.58261191

>  <Name>
ligand

>  <RI>
0

>  <Rbt.Current_Directory>
/home/itssahil/PROJECTS/Mol_Feturizer/New_Systems/rnas/2CKY

>  <Rbt.Executable>
rbdock ($Id: //depot/dev/client3/rdock/2013.1/src/exe/rbdock.cxx#4 $)

>  <Rbt.Library>
libRbt.so (2013.1, Build901 2013/11/27)

>  <Rbt.Parameter_File>
/export/apps/rDock/src/rDock_2013.1_src/data/scripts/dock_solv.prm

>  <Rbt.Receptor>
prm/pocket_docking_5.prm

>  <SCORE>
-17.5166

>  <SCORE.INTER>
-11.494

>  <SCORE.INTER.CONST>
1

>  <SCORE.INTER.POLAR>
0

>  <SCORE.INTER.ROT>
8

>  <SCORE.INTER.SOLV>
16.2659

>  <SCORE.INTER.VDW>
-22.018

>  <SCORE.INTER.norm>
-0.442075

>  <SCORE.INTRA>
-6.02268

>  <SCORE.INTRA.DIHEDRAL>
-8.77186

>  <SCORE.INTRA.DIHEDRAL.0>
16.4846

>  <SCORE.INTRA.POLAR>
0

>  <SCORE.INTRA.POLAR.0>
0

>  <SCORE.INTRA.REPUL>
0

>  <SCORE.INTRA.REPUL.0>
0

>  <SCORE.INTRA.SOLV>
1.05953

>  <SCORE.INTRA.SOLV.lig_0>
-82.6983

>  <SCORE.INTRA.VDW>
-2.16651

>  <SCORE.INTRA.VDW.0>
-2.11466

>  <SCORE.INTRA.norm>
-0.231641

>  <SCORE.RESTR>
0

>  <SCORE.RESTR.CAVITY>
0

>  <SCORE.RESTR.norm>
0

>  <SCORE.SYSTEM>
0

>  <SCORE.SYSTEM.CONST>
0

>  <SCORE.SYSTEM.DIHEDRAL>
0

>  <SCORE.SYSTEM.SOLV>
0

>  <SCORE.SYSTEM.norm>
0

>  <SCORE.heavy>
26

>  <SCORE.norm>
-0.673717

>  <RMSD>
9.129

$$$$
ligand
 OpenBabel11021811423D
libRbt.so/2013.1/901 2013/11/27
 26 27  0  0  0  0  0  0  0  0999 V2000
   -2.9590  -14.4698  -99.8827 C   0  0  0  0  0  0  0  0  0  0  0  0
    2.9749  -16.5631  -99.7149 C   0  0  0  0  0  0  0  0  0  0  0  0
    1.6370  -17.5947  -95.7532 P   0  0  2  0  0  0  0  0  0  0  0  0
    1.5942  -18.5700  -93.1614 P   0  0  2  0  0  0  0  0  0  0  0  0
    2.6212  -13.6723 -100.9271 C   0  0  0  0  0  0  0  0  0  0  0  0
    0.4508  -14.8126 -101.3141 C   0  0  0  0  0  0  0  0  0  0  0  0
    1.1550  -13.8268 -100.6350 C   0  0  0  0  0  0  0  0  0  0  0  0
    0.4873  -13.0609  -99.6748 C   0  0  0  0  0  0  0  0  0  0  0  0
    1.0610  -12.0979  -98.9528 N   0  0  0  0  0  0  0  0  0  0  0  0
   -0.8445  -13.2927  -99.4472 N   0  0  0  0  0  0  0  0  0  0  0  0
   -1.5157  -14.2568 -100.1452 C   0  0  0  0  0  0  0  0  0  0  0  0
   -0.8896  -15.0257 -101.0733 N   0  0  0  0  0  0  0  0  0  0  0  0
    1.0476  -16.2812  -95.2783 O   0  5  0  0  0  0  0  0  0  0  0  0
    0.9634  -17.2705  -92.7140 O   0  0  0  0  0  0  0  0  0  0  0  0
    5.1785  -13.8375  -97.9604 S   0  0  0  0  0  0  0  0  0  0  0  0
    4.3036  -13.1808  -99.1685 C   0  0  0  0  0  0  0  0  0  0  0  0
    0.4872  -18.3786  -96.3804 O   0  0  0  0  0  0  0  0  0  0  0  0
    2.5878  -19.0923  -92.1437 O   0  5  0  0  0  0  0  0  0  0  0  0
    3.4993  -14.0719  -99.8535 N   0  0  0  0  0  0  0  0  0  0  0  0
    2.4059  -18.2552  -94.4968 O   0  0  0  0  0  0  0  0  0  0  0  0
    0.4881  -19.5790  -93.3940 O   0  0  0  0  0  0  0  0  0  0  0  0
    3.6577  -15.3198  -99.3031 C   0  0  1  0  0  0  0  0  0  0  0  0
    4.5710  -15.2884  -98.2375 C   0  0  2  0  0  0  0  0  0  0  0  0
    5.1174  -16.3106  -97.2716 C   0  0  0  0  0  0  0  0  0  0  0  0
    4.1377  -16.5703  -96.1222 C   0  0  0  0  0  0  0  0  0  0  0  0
    3.0037  -17.2719  -96.6167 O   0  0  0  0  0  0  0  0  0  0  0  0
  1 11  1  0  0  0  0
  3 13  1  1  0  0  0
  3 17  2  0  0  0  0
  3 20  1  0  0  0  0
  3 26  1  0  0  0  0
  4 14  1  1  0  0  0
  4 18  1  0  0  0  0
  4 21  2  0  0  0  0
  4 20  1  0  0  0  0
  5 19  1  0  0  0  0
  5  7  1  0  0  0  0
  6  7  2  0  0  0  0
  6 12  1  0  0  0  0
  7  8  1  0  0  0  0
  8  9  1  0  0  0  0
  8 10  2  0  0  0  0
 10 11  1  0  0  0  0
 11 12  2  0  0  0  0
 15 23  1  0  0  0  0
 15 16  1  0  0  0  0
 16 19  1  0  0  0  0
 19 22  1  0  0  0  0
 22  2  1  1  0  0  0
 22 23  1  0  0  0  0
 23 24  1  1  0  0  0
 24 25  1  0  0  0  0
 25 26  1  0  0  0  0
M  CHG  2  13  -1  18  -1
M  END
>  <CHROM.1>
58.54712487,-113.93474497,-110.26683062,-56.31450093,98.87577615,70.17530878
-172.50639584,58.21026376,1.92633995,-15.92942033,-97.26061043,1.63104565
-0.12158814,-0.94464071

>  <Name>
ligand

>  <RI>
0

>  <Rbt.Current_Directory>
/home/itssahil/PROJECTS/Mol_Feturizer/New_Systems/rnas/2CKY

>  <Rbt.Executable>
rbdock ($Id: //depot/dev/client3/rdock/2013.1/src/exe/rbdock.cxx#4 $)

>  <Rbt.Library>
libRbt.so (2013.1, Build901 2013/11/27)

>  <Rbt.Parameter_File>
/export/apps/rDock/src/rDock_2013.1_src/data/scripts/dock_solv.prm

>  <Rbt.Receptor>
prm/pocket_docking_4.prm

>  <SCORE>
-20.0455

>  <SCORE.INTER>
-13.3016

>  <SCORE.INTER.CONST>
1

>  <SCORE.INTER.POLAR>
0

>  <SCORE.INTER.ROT>
8

>  <SCORE.INTER.SOLV>
14.2995

>  <SCORE.INTER.VDW>
-22.5676

>  <SCORE.INTER.norm>
-0.5116

>  <SCORE.INTRA>
-6.75271

>  <SCORE.INTRA.DIHEDRAL>
-11.0864

>  <SCORE.INTRA.DIHEDRAL.0>
16.4846

>  <SCORE.INTRA.POLAR>
0

>  <SCORE.INTRA.POLAR.0>
0

>  <SCORE.INTRA.REPUL>
0

>  <SCORE.INTRA.REPUL.0>
0

>  <SCORE.INTRA.SOLV>
1.56464

>  <SCORE.INTRA.SOLV.lig_0>
-82.6983

>  <SCORE.INTRA.VDW>
-1.99182

>  <SCORE.INTRA.VDW.0>
-2.11466

>  <SCORE.INTRA.norm>
-0.259719

>  <SCORE.RESTR>
0.00878478

>  <SCORE.RESTR.CAVITY>
0.00878478

>  <SCORE.RESTR.norm>
0.000337876

>  <SCORE.SYSTEM>
0

>  <SCORE.SYSTEM.CONST>
0

>  <SCORE.SYSTEM.DIHEDRAL>
0

>  <SCORE.SYSTEM.SOLV>
0

>  <SCORE.SYSTEM.norm>
0

>  <SCORE.heavy>
26

>  <SCORE.norm>
-0.770981

>  <RMSD>
9.137

$$$$
ligand
 OpenBabel11021811423D
libRbt.so/2013.1/901 2013/11/27
 26 27  0  0  0  0  0  0  0  0999 V2000
   -2.9186  -14.5025  -99.8424 C   0  0  0  0  0  0  0  0  0  0  0  0
    3.2493  -16.5882  -99.9055 C   0  0  0  0  0  0  0  0  0  0  0  0
    1.8863  -17.3038  -95.7204 P   0  0  2  0  0  0  0  0  0  0  0  0
    1.8547  -18.4111  -93.1820 P   0  0  2  0  0  0  0  0  0  0  0  0
    2.6343  -13.7023 -101.0212 C   0  0  0  0  0  0  0  0  0  0  0  0
    0.4528  -14.8355 -101.3640 C   0  0  0  0  0  0  0  0  0  0  0  0
    1.1759  -13.8577 -100.6932 C   0  0  0  0  0  0  0  0  0  0  0  0
    0.5343  -13.1007  -99.7085 C   0  0  0  0  0  0  0  0  0  0  0  0
    1.1279  -12.1460  -98.9916 N   0  0  0  0  0  0  0  0  0  0  0  0
   -0.7917  -13.3329  -99.4492 N   0  0  0  0  0  0  0  0  0  0  0  0
   -1.4821  -14.2889 -100.1396 C   0  0  0  0  0  0  0  0  0  0  0  0
   -0.8813  -15.0492 -101.0912 N   0  0  0  0  0  0  0  0  0  0  0  0
    1.4502  -15.9483  -95.2003 O   0  5  0  0  0  0  0  0  0  0  0  0
    1.3051  -17.1118  -92.6375 O   0  0  0  0  0  0  0  0  0  0  0  0
    5.1725  -13.7315  -98.0337 S   0  0  0  0  0  0  0  0  0  0  0  0
    4.2491  -13.1175  -99.2281 C   0  0  0  0  0  0  0  0  0  0  0  0
    0.6359  -17.9656  -96.2934 O   0  0  0  0  0  0  0  0  0  0  0  0
    2.8397  -19.0502  -92.2245 O   0  5  0  0  0  0  0  0  0  0  0  0
    3.5377  -14.0554  -99.9523 N   0  0  0  0  0  0  0  0  0  0  0  0
    2.6537  -18.0539  -94.5144 O   0  0  0  0  0  0  0  0  0  0  0  0
    0.6905  -19.3430  -93.4509 O   0  0  0  0  0  0  0  0  0  0  0  0
    3.8087  -15.3016  -99.4435 C   0  0  1  0  0  0  0  0  0  0  0  0
    4.7066  -15.2222  -98.3673 C   0  0  2  0  0  0  0  0  0  0  0  0
    5.3393  -16.2221  -97.4312 C   0  0  0  0  0  0  0  0  0  0  0  0
    4.4429  -16.4944  -96.2185 C   0  0  0  0  0  0  0  0  0  0  0  0
    3.2303  -17.0979  -96.6526 O   0  0  0  0  0  0  0  0  0  0  0  0
  1 11  1  0  0  0  0
  3 13  1  1  0  0  0
  3 17  2  0  0  0  0
  3 20  1  0  0  0  0
  3 26  1  0  0  0  0
  4 14  1  1  0  0  0
  4 18  1  0  0  0  0
  4 21  2  0  0  0  0
  4 20  1  0  0  0  0
  5 19  1  0  0  0  0
  5  7  1  0  0  0  0
  6  7  2  0  0  0  0
  6 12  1  0  0  0  0
  7  8  1  0  0  0  0
  8  9  1  0  0  0  0
  8 10  2  0  0  0  0
 10 11  1  0  0  0  0
 11 12  2  0  0  0  0
 15 23  1  0  0  0  0
 15 16  1  0  0  0  0
 16 19  1  0  0  0  0
 19 22  1  0  0  0  0
 22  2  1  1  0  0  0
 22 23  1  0  0  0  0
 23 24  1  1  0  0  0
 24 25  1  0  0  0  0
 25 26  1  0  0  0  0
M  CHG  2  13  -1  18  -1
M  END
>  <CHROM.1>
63.17761274,-107.30634095,-113.01603519,-57.71536248,92.50689736,63.90097652
-168.27618734,57.11027530,2.07795905,-15.82852096,-97.29919561,1.67018282
-0.10419467,-0.97179749

>  <Name>
ligand

>  <RI>
0

>  <Rbt.Current_Directory>
/home/itssahil/PROJECTS/Mol_Feturizer/New_Systems/rnas/2CKY

>  <Rbt.Executable>
rbdock ($Id: //depot/dev/client3/rdock/2013.1/src/exe/rbdock.cxx#4 $)

>  <Rbt.Library>
libRbt.so (2013.1, Build901 2013/11/27)

>  <Rbt.Parameter_File>
/export/apps/rDock/src/rDock_2013.1_src/data/scripts/dock_solv.prm

>  <Rbt.Receptor>
prm/pocket_docking_5.prm

>  <SCORE>
-20.7303

>  <SCORE.INTER>
-13.8619

>  <SCORE.INTER.CONST>
1

>  <SCORE.INTER.POLAR>
0

>  <SCORE.INTER.ROT>
8

>  <SCORE.INTER.SOLV>
14.0069

>  <SCORE.INTER.VDW>
-22.8436

>  <SCORE.INTER.norm>
-0.53315

>  <SCORE.INTRA>
-6.8684

>  <SCORE.INTRA.DIHEDRAL>
-10.9936

>  <SCORE.INTRA.DIHEDRAL.0>
16.4846

>  <SCORE.INTRA.POLAR>
0

>  <SCORE.INTRA.POLAR.0>
0

>  <SCORE.INTRA.REPUL>
0

>  <SCORE.INTRA.REPUL.0>
0

>  <SCORE.INTRA.SOLV>
1.57485

>  <SCORE.INTRA.SOLV.lig_0>
-82.6983

>  <SCORE.INTRA.VDW>
-2.15901

>  <SCORE.INTRA.VDW.0>
-2.11466

>  <SCORE.INTRA.norm>
-0.264169

>  <SCORE.RESTR>
0

>  <SCORE.RESTR.CAVITY>
0

>  <SCORE.RESTR.norm>
0

>  <SCORE.SYSTEM>
0

>  <SCORE.SYSTEM.CONST>
0

>  <SCORE.SYSTEM.DIHEDRAL>
0

>  <SCORE.SYSTEM.SOLV>
0

>  <SCORE.SYSTEM.norm>
0

>  <SCORE.heavy>
26

>  <SCORE.norm>
-0.79732

>  <RMSD>
9.150

$$$$
ligand
 OpenBabel11021811423D
libRbt.so/2013.1/901 2013/11/27
 26 27  0  0  0  0  0  0  0  0999 V2000
    2.6645  -16.7741 -100.9678 C   0  0  0  0  0  0  0  0  0  0  0  0
   -2.6115  -12.5977  -98.8550 C   0  0  0  0  0  0  0  0  0  0  0  0
    0.1520  -12.6606  -93.0727 P   0  0  2  0  0  0  0  0  0  0  0  0
   -0.0952  -11.2166  -90.7223 P   0  0  2  0  0  0  0  0  0  0  0  0
   -2.7160  -15.7199  -99.2932 C   0  0  0  0  0  0  0  0  0  0  0  0
   -0.7013  -15.2349 -100.6594 C   0  0  0  0  0  0  0  0  0  0  0  0
   -1.3126  -16.0514  -99.7167 C   0  0  0  0  0  0  0  0  0  0  0  0
   -0.5824  -17.1078  -99.1645 C   0  0  0  0  0  0  0  0  0  0  0  0
   -1.0581  -17.9476  -98.2446 N   0  0  0  0  0  0  0  0  0  0  0  0
    0.7059  -17.3173  -99.5840 N   0  0  0  0  0  0  0  0  0  0  0  0
    1.2740  -16.5088 -100.5278 C   0  0  0  0  0  0  0  0  0  0  0  0
    0.5937  -15.4663 -101.0710 N   0  0  0  0  0  0  0  0  0  0  0  0
    0.3380  -14.0060  -92.3994 O   0  5  0  0  0  0  0  0  0  0  0  0
   -1.2137  -10.5821  -89.9267 O   0  0  0  0  0  0  0  0  0  0  0  0
   -2.9979  -14.6436  -95.5341 S   0  0  0  0  0  0  0  0  0  0  0  0
   -2.9466  -15.6407  -96.8223 C   0  0  0  0  0  0  0  0  0  0  0  0
    1.5496  -12.1667  -93.4370 O   0  0  0  0  0  0  0  0  0  0  0  0
    0.9725  -10.2080  -91.0944 O   0  5  0  0  0  0  0  0  0  0  0  0
   -2.8200  -15.0056  -98.0433 N   0  0  0  0  0  0  0  0  0  0  0  0
   -0.7373  -11.7489  -92.0808 O   0  0  0  0  0  0  0  0  0  0  0  0
    0.4967  -12.3401  -89.8958 O   0  0  0  0  0  0  0  0  0  0  0  0
   -2.7633  -13.6503  -97.8300 C   0  0  1  0  0  0  0  0  0  0  0  0
   -2.8498  -13.3516  -96.4612 C   0  0  2  0  0  0  0  0  0  0  0  0
   -2.8272  -12.0837  -95.6435 C   0  0  0  0  0  0  0  0  0  0  0  0
   -1.4180  -11.7820  -95.1226 C   0  0  0  0  0  0  0  0  0  0  0  0
   -1.0137  -12.8115  -94.2285 O   0  0  0  0  0  0  0  0  0  0  0  0
  1 11  1  0  0  0  0
  3 13  1  1  0  0  0
  3 17  2  0  0  0  0
  3 20  1  0  0  0  0
  3 26  1  0  0  0  0
  4 14  1  1  0  0  0
  4 18  1  0  0  0  0
  4 21  2  0  0  0  0
  4 20  1  0  0  0  0
  5 19  1  0  0  0  0
  5  7  1  0  0  0  0
  6  7  2  0  0  0  0
  6 12  1  0  0  0  0
  7  8  1  0  0  0  0
  8  9  1  0  0  0  0
  8 10  2  0  0  0  0
 10 11  1  0  0  0  0
 11 12  2  0  0  0  0
 15 23  1  0  0  0  0
 15 16  1  0  0  0  0
 16 19  1  0  0  0  0
 19 22  1  0  0  0  0
 22  2  1  1  0  0  0
 22 23  1  0  0  0  0
 23 24  1  1  0  0  0
 24 25  1  0  0  0  0
 25 26  1  0  0  0  0
M  CHG  2  13  -1  18  -1
M  END
>  <CHROM.1>
70.59672588,-90.32014807,-99.35069923,-171.74050024,84.30661464,-64.06528887
-158.03089805,-176.44853965,-0.81225383,-13.77176763,-95.58426201,-1.62066046
-0.20761183,1.06470252

>  <Name>
ligand

>  <RI>
0

>  <Rbt.Current_Directory>
/home/itssahil/PROJECTS/Mol_Feturizer/New_Systems/rnas/2CKY

>  <Rbt.Executable>
rbdock ($Id: //depot/dev/client3/rdock/2013.1/src/exe/rbdock.cxx#4 $)

>  <Rbt.Library>
libRbt.so (2013.1, Build901 2013/11/27)

>  <Rbt.Parameter_File>
/export/apps/rDock/src/rDock_2013.1_src/data/scripts/dock_solv.prm

>  <Rbt.Receptor>
prm/pocket_docking_8.prm

>  <SCORE>
-19.2689

>  <SCORE.INTER>
-13.9822

>  <SCORE.INTER.CONST>
1

>  <SCORE.INTER.POLAR>
0

>  <SCORE.INTER.ROT>
8

>  <SCORE.INTER.SOLV>
15.2431

>  <SCORE.INTER.VDW>
-23.3359

>  <SCORE.INTER.norm>
-0.537779

>  <SCORE.INTRA>
-5.28669

>  <SCORE.INTRA.DIHEDRAL>
-9.21079

>  <SCORE.INTRA.DIHEDRAL.0>
16.4846

>  <SCORE.INTRA.POLAR>
0

>  <SCORE.INTRA.POLAR.0>
0

>  <SCORE.INTRA.REPUL>
0

>  <SCORE.INTRA.REPUL.0>
0

>  <SCORE.INTRA.SOLV>
2.58491

>  <SCORE.INTRA.SOLV.lig_0>
-82.6983

>  <SCORE.INTRA.VDW>
-1.97374

>  <SCORE.INTRA.VDW.0>
-2.11466

>  <SCORE.INTRA.norm>
-0.203334

>  <SCORE.RESTR>
0

>  <SCORE.RESTR.CAVITY>
0

>  <SCORE.RESTR.norm>
0

>  <SCORE.SYSTEM>
0

>  <SCORE.SYSTEM.CONST>
0

>  <SCORE.SYSTEM.DIHEDRAL>
0

>  <SCORE.SYSTEM.SOLV>
0

>  <SCORE.SYSTEM.norm>
0

>  <SCORE.heavy>
26

>  <SCORE.norm>
-0.741113

>  <RMSD>
9.167

$$$$
ligand
 OpenBabel11021811423D
libRbt.so/2013.1/901 2013/11/27
 26 27  0  0  0  0  0  0  0  0999 V2000
    4.5356  -10.6323 -100.3229 C   0  0  0  0  0  0  0  0  0  0  0  0
   -0.4337  -11.2076  -94.7699 C   0  0  0  0  0  0  0  0  0  0  0  0
   -1.9364  -16.3315  -96.9084 P   0  0  2  0  0  0  0  0  0  0  0  0
   -3.4791  -15.5463  -99.0704 P   0  0  2  0  0  0  0  0  0  0  0  0
   -0.1256   -9.2997  -97.2631 C   0  0  0  0  0  0  0  0  0  0  0  0
    1.0120  -10.4069  -99.1711 C   0  0  0  0  0  0  0  0  0  0  0  0
    1.1283   -9.6419  -98.0177 C   0  0  0  0  0  0  0  0  0  0  0  0
    2.3922   -9.1794  -97.6396 C   0  0  0  0  0  0  0  0  0  0  0  0
    2.6242   -8.4285  -96.5625 N   0  0  0  0  0  0  0  0  0  0  0  0
    3.4790   -9.5109  -98.4066 N   0  0  0  0  0  0  0  0  0  0  0  0
    3.3360  -10.2818  -99.5257 C   0  0  0  0  0  0  0  0  0  0  0  0
    2.1188  -10.7330  -99.9252 N   0  0  0  0  0  0  0  0  0  0  0  0
   -0.6034  -15.9681  -97.5322 O   0  5  0  0  0  0  0  0  0  0  0  0
   -4.3240  -16.7991  -99.1291 O   0  0  0  0  0  0  0  0  0  0  0  0
   -2.8665  -12.0648  -97.7211 S   0  0  0  0  0  0  0  0  0  0  0  0
   -1.9420  -10.7751  -98.0929 C   0  0  0  0  0  0  0  0  0  0  0  0
   -2.1088  -17.8346  -97.1107 O   0  0  0  0  0  0  0  0  0  0  0  0
   -2.2089  -15.6861  -99.8844 O   0  5  0  0  0  0  0  0  0  0  0  0
   -1.0555  -10.3921  -97.1042 N   0  0  0  0  0  0  0  0  0  0  0  0
   -3.0468  -15.3501  -97.5486 O   0  0  0  0  0  0  0  0  0  0  0  0
   -4.3131  -14.3874  -99.5774 O   0  0  0  0  0  0  0  0  0  0  0  0
   -1.1960  -11.2415  -96.0345 C   0  0  1  0  0  0  0  0  0  0  0  0
   -2.1792  -12.2111  -96.2869 C   0  0  2  0  0  0  0  0  0  0  0  0
   -2.7442  -13.3809  -95.5195 C   0  0  0  0  0  0  0  0  0  0  0  0
   -1.6363  -14.3394  -95.0698 C   0  0  0  0  0  0  0  0  0  0  0  0
   -2.0030  -15.6737  -95.3982 O   0  0  0  0  0  0  0  0  0  0  0  0
  1 11  1  0  0  0  0
  3 13  1  6  0  0  0
  3 17  2  0  0  0  0
  3 20  1  0  0  0  0
  3 26  1  0  0  0  0
  4 14  1  6  0  0  0
  4 18  1  0  0  0  0
  4 21  2  0  0  0  0
  4 20  1  0  0  0  0
  5 19  1  0  0  0  0
  5  7  1  0  0  0  0
  6  7  2  0  0  0  0
  6 12  1  0  0  0  0
  7  8  1  0  0  0  0
  8  9  1  0  0  0  0
  8 10  2  0  0  0  0
 10 11  1  0  0  0  0
 11 12  2  0  0  0  0
 15 23  1  0  0  0  0
 15 16  1  0  0  0  0
 16 19  1  0  0  0  0
 19 22  1  0  0  0  0
 22  2  1  6  0  0  0
 22 23  1  0  0  0  0
 23 24  1  6  0  0  0
 24 25  1  0  0  0  0
 25 26  1  0  0  0  0
M  CHG  2  13  -1  18  -1
M  END
>  <CHROM.1>
71.08131897,-81.23538561,43.71028219,72.81442551,125.12773432,-131.79977056
76.39128822,45.99228859,-1.02298899,-13.01055181,-97.70975532,-0.56352058
-0.72311882,-2.39949527

>  <Name>
ligand

>  <RI>
0

>  <Rbt.Current_Directory>
/home/itssahil/PROJECTS/Mol_Feturizer/New_Systems/rnas/2CKY

>  <Rbt.Executable>
rbdock ($Id: //depot/dev/client3/rdock/2013.1/src/exe/rbdock.cxx#4 $)

>  <Rbt.Library>
libRbt.so (2013.1, Build901 2013/11/27)

>  <Rbt.Parameter_File>
/export/apps/rDock/src/rDock_2013.1_src/data/scripts/dock_solv.prm

>  <Rbt.Receptor>
prm/pocket_docking_8.prm

>  <SCORE>
-16.5548

>  <SCORE.INTER>
-12.7123

>  <SCORE.INTER.CONST>
1

>  <SCORE.INTER.POLAR>
0

>  <SCORE.INTER.ROT>
8

>  <SCORE.INTER.SOLV>
12.8435

>  <SCORE.INTER.VDW>
-21.6894

>  <SCORE.INTER.norm>
-0.488935

>  <SCORE.INTRA>
-3.84247

>  <SCORE.INTRA.DIHEDRAL>
-5.26785

>  <SCORE.INTRA.DIHEDRAL.0>
16.4846

>  <SCORE.INTRA.POLAR>
0

>  <SCORE.INTRA.POLAR.0>
0

>  <SCORE.INTRA.REPUL>
0

>  <SCORE.INTRA.REPUL.0>
0

>  <SCORE.INTRA.SOLV>
2.13888

>  <SCORE.INTRA.SOLV.lig_0>
-82.6983

>  <SCORE.INTRA.VDW>
-2.27798

>  <SCORE.INTRA.VDW.0>
-2.11466

>  <SCORE.INTRA.norm>
-0.147787

>  <SCORE.RESTR>
0

>  <SCORE.RESTR.CAVITY>
0

>  <SCORE.RESTR.norm>
0

>  <SCORE.SYSTEM>
0

>  <SCORE.SYSTEM.CONST>
0

>  <SCORE.SYSTEM.DIHEDRAL>
0

>  <SCORE.SYSTEM.SOLV>
0

>  <SCORE.SYSTEM.norm>
0

>  <SCORE.heavy>
26

>  <SCORE.norm>
-0.636722

>  <RMSD>
9.178

$$$$
ligand
 OpenBabel11021811423D
libRbt.so/2013.1/901 2013/11/27
 26 27  0  0  0  0  0  0  0  0999 V2000
   -1.0186  -10.3503  -97.8306 C   0  0  0  0  0  0  0  0  0  0  0  0
    0.8720  -16.6878  -98.6205 C   0  0  0  0  0  0  0  0  0  0  0  0
    1.1816  -19.2707  -93.2372 P   0  0  2  0  0  0  0  0  0  0  0  0
   -1.1313  -18.0123  -92.3784 P   0  0  2  0  0  0  0  0  0  0  0  0
   -1.5895  -15.5307 -100.2186 C   0  0  0  0  0  0  0  0  0  0  0  0
   -0.4343  -13.3519  -99.9384 C   0  0  0  0  0  0  0  0  0  0  0  0
   -1.4685  -14.1920  -99.5464 C   0  0  0  0  0  0  0  0  0  0  0  0
   -2.3799  -13.7383  -98.5884 C   0  0  0  0  0  0  0  0  0  0  0  0
   -3.4172  -14.4490  -98.1450 N   0  0  0  0  0  0  0  0  0  0  0  0
   -2.2139  -12.4878  -98.0517 N   0  0  0  0  0  0  0  0  0  0  0  0
   -1.1749  -11.6912  -98.4431 C   0  0  0  0  0  0  0  0  0  0  0  0
   -0.2828  -12.0998  -99.3821 N   0  0  0  0  0  0  0  0  0  0  0  0
    1.9630  -20.4623  -92.7198 O   0  5  0  0  0  0  0  0  0  0  0  0
   -2.5624  -18.4231  -92.1143 O   0  0  0  0  0  0  0  0  0  0  0  0
   -2.4491  -18.6956  -98.0707 S   0  0  0  0  0  0  0  0  0  0  0  0
   -2.6967  -17.4371  -99.0763 C   0  0  0  0  0  0  0  0  0  0  0  0
    2.0271  -18.0376  -92.9300 O   0  0  0  0  0  0  0  0  0  0  0  0
   -1.0060  -17.1954  -93.6483 O   0  5  0  0  0  0  0  0  0  0  0  0
   -1.5788  -16.6627  -99.3231 N   0  0  0  0  0  0  0  0  0  0  0  0
   -0.2968  -19.3533  -92.5940 O   0  0  0  0  0  0  0  0  0  0  0  0
   -0.6366  -17.2218  -91.1842 O   0  0  0  0  0  0  0  0  0  0  0  0
   -0.5172  -17.1897  -98.6298 C   0  0  1  0  0  0  0  0  0  0  0  0
   -0.9036  -18.3285  -97.9057 C   0  0  2  0  0  0  0  0  0  0  0  0
   -0.1957  -19.3081  -97.0025 C   0  0  0  0  0  0  0  0  0  0  0  0
    0.3566  -18.6144  -95.7527 C   0  0  0  0  0  0  0  0  0  0  0  0
    0.6962  -19.5941  -94.7791 O   0  0  0  0  0  0  0  0  0  0  0  0
  1 11  1  0  0  0  0
  3 13  1  1  0  0  0
  3 17  2  0  0  0  0
  3 20  1  0  0  0  0
  3 26  1  0  0  0  0
  4 14  1  1  0  0  0
  4 18  1  0  0  0  0
  4 21  2  0  0  0  0
  4 20  1  0  0  0  0
  5 19  1  0  0  0  0
  5  7  1  0  0  0  0
  6  7  2  0  0  0  0
  6 12  1  0  0  0  0
  7  8  1  0  0  0  0
  8  9  1  0  0  0  0
  8 10  2  0  0  0  0
 10 11  1  0  0  0  0
 11 12  2  0  0  0  0
 15 23  1  0  0  0  0
 15 16  1  0  0  0  0
 16 19  1  0  0  0  0
 19 22  1  0  0  0  0
 22  2  1  6  0  0  0
 22 23  1  0  0  0  0
 23 24  1  6  0  0  0
 24 25  1  0  0  0  0
 25 26  1  0  0  0  0
M  CHG  2  13  -1  18  -1
M  END
>  <CHROM.1>
152.70151312,109.61336615,123.84278770,165.58962716,-117.77170777,164.86468694
-173.53544450,-157.32600940,-0.75600231,-16.84959254,-96.11308924,-2.98960873
1.36631298,-2.59187167

>  <Name>
ligand

>  <RI>
0

>  <Rbt.Current_Directory>
/home/itssahil/PROJECTS/Mol_Feturizer/New_Systems/rnas/2CKY

>  <Rbt.Executable>
rbdock ($Id: //depot/dev/client3/rdock/2013.1/src/exe/rbdock.cxx#4 $)

>  <Rbt.Library>
libRbt.so (2013.1, Build901 2013/11/27)

>  <Rbt.Parameter_File>
/export/apps/rDock/src/rDock_2013.1_src/data/scripts/dock_solv.prm

>  <Rbt.Receptor>
prm/pocket_docking_4.prm

>  <SCORE>
-12.9372

>  <SCORE.INTER>
-8.57387

>  <SCORE.INTER.CONST>
1

>  <SCORE.INTER.POLAR>
0

>  <SCORE.INTER.ROT>
8

>  <SCORE.INTER.SOLV>
20.3599

>  <SCORE.INTER.VDW>
-21.4359

>  <SCORE.INTER.norm>
-0.329764

>  <SCORE.INTRA>
-4.36333

>  <SCORE.INTRA.DIHEDRAL>
-8.29087

>  <SCORE.INTRA.DIHEDRAL.0>
16.4846

>  <SCORE.INTRA.POLAR>
0

>  <SCORE.INTRA.POLAR.0>
0

>  <SCORE.INTRA.REPUL>
0

>  <SCORE.INTRA.REPUL.0>
0

>  <SCORE.INTRA.SOLV>
3.41362

>  <SCORE.INTRA.SOLV.lig_0>
-82.6983

>  <SCORE.INTRA.VDW>
-1.9247

>  <SCORE.INTRA.VDW.0>
-2.11466

>  <SCORE.INTRA.norm>
-0.16782

>  <SCORE.RESTR>
0

>  <SCORE.RESTR.CAVITY>
0

>  <SCORE.RESTR.norm>
0

>  <SCORE.SYSTEM>
0

>  <SCORE.SYSTEM.CONST>
0

>  <SCORE.SYSTEM.DIHEDRAL>
0

>  <SCORE.SYSTEM.SOLV>
0

>  <SCORE.SYSTEM.norm>
0

>  <SCORE.heavy>
26

>  <SCORE.norm>
-0.497585

>  <RMSD>
9.206

$$$$
ligand
 OpenBabel11021811423D
libRbt.so/2013.1/901 2013/11/27
 26 27  0  0  0  0  0  0  0  0999 V2000
    4.1429  -19.2242 -101.5024 C   0  0  0  0  0  0  0  0  0  0  0  0
   -1.7271  -20.5013  -98.2227 C   0  0  0  0  0  0  0  0  0  0  0  0
   -2.4723  -15.9270  -99.8230 P   0  0  2  0  0  0  0  0  0  0  0  0
    0.0490  -15.8522 -100.9666 P   0  0  2  0  0  0  0  0  0  0  0  0
   -0.6504  -22.2432 -100.6222 C   0  0  0  0  0  0  0  0  0  0  0  0
    1.0439  -20.5585  -99.9503 C   0  0  0  0  0  0  0  0  0  0  0  0
    0.5988  -21.4586 -100.9098 C   0  0  0  0  0  0  0  0  0  0  0  0
    1.3563  -21.6359 -102.0713 C   0  0  0  0  0  0  0  0  0  0  0  0
    1.0363  -22.4791 -103.0533 N   0  0  0  0  0  0  0  0  0  0  0  0
    2.5029  -20.9028 -102.2364 N   0  0  0  0  0  0  0  0  0  0  0  0
    2.9052  -20.0101 -101.2833 C   0  0  0  0  0  0  0  0  0  0  0  0
    2.1974  -19.8276 -100.1386 N   0  0  0  0  0  0  0  0  0  0  0  0
   -3.1812  -14.7714 -100.5014 O   0  5  0  0  0  0  0  0  0  0  0  0
   -0.1474  -14.4261 -101.4296 O   0  0  0  0  0  0  0  0  0  0  0  0
   -4.0872  -20.5042 -101.3521 S   0  0  0  0  0  0  0  0  0  0  0  0
   -2.7609  -21.4096 -101.6301 C   0  0  0  0  0  0  0  0  0  0  0  0
   -1.9493  -15.3882  -98.4941 O   0  0  0  0  0  0  0  0  0  0  0  0
    0.8518  -16.6618 -101.9645 O   0  5  0  0  0  0  0  0  0  0  0  0
   -1.8625  -21.4607 -100.5810 N   0  0  0  0  0  0  0  0  0  0  0  0
   -1.3987  -16.5134 -100.8763 O   0  0  0  0  0  0  0  0  0  0  0  0
    0.7444  -15.8227  -99.6208 O   0  0  0  0  0  0  0  0  0  0  0  0
   -2.3550  -20.7080  -99.5435 C   0  0  1  0  0  0  0  0  0  0  0  0
   -3.5940  -20.1389  -99.8776 C   0  0  2  0  0  0  0  0  0  0  0  0
   -4.5899  -19.2588  -99.1633 C   0  0  0  0  0  0  0  0  0  0  0  0
   -3.9502  -17.9379  -98.7226 C   0  0  0  0  0  0  0  0  0  0  0  0
   -3.4628  -17.2441  -99.8645 O   0  0  0  0  0  0  0  0  0  0  0  0
  1 11  1  0  0  0  0
  3 13  1  6  0  0  0
  3 17  2  0  0  0  0
  3 20  1  0  0  0  0
  3 26  1  0  0  0  0
  4 14  1  6  0  0  0
  4 18  1  0  0  0  0
  4 21  2  0  0  0  0
  4 20  1  0  0  0  0
  5 19  1  0  0  0  0
  5  7  1  0  0  0  0
  6  7  2  0  0  0  0
  6 12  1  0  0  0  0
  7  8  1  0  0  0  0
  8  9  1  0  0  0  0
  8 10  2  0  0  0  0
 10 11  1  0  0  0  0
 11 12  2  0  0  0  0
 15 23  1  0  0  0  0
 15 16  1  0  0  0  0
 16 19  1  0  0  0  0
 19 22  1  0  0  0  0
 22  2  1  1  0  0  0
 22 23  1  0  0  0  0
 23 24  1  1  0  0  0
 24 25  1  0  0  0  0
 25 26  1  0  0  0  0
M  CHG  2  13  -1  18  -1
M  END
>  <CHROM.1>
85.73388396,101.12986814,67.91937618,-63.53322031,-121.92646878,59.74513359
-168.33758369,-120.05782890,-0.99174974,-18.61166404,-100.55990116,-0.98844888
0.24904963,0.10808800

>  <Name>
ligand

>  <RI>
0

>  <Rbt.Current_Directory>
/home/itssahil/PROJECTS/Mol_Feturizer/New_Systems/rnas/2CKY

>  <Rbt.Executable>
rbdock ($Id: //depot/dev/client3/rdock/2013.1/src/exe/rbdock.cxx#4 $)

>  <Rbt.Library>
libRbt.so (2013.1, Build901 2013/11/27)

>  <Rbt.Parameter_File>
/export/apps/rDock/src/rDock_2013.1_src/data/scripts/dock_solv.prm

>  <Rbt.Receptor>
prm/pocket_docking_8.prm

>  <SCORE>
-24.0364

>  <SCORE.INTER>
-17.7522

>  <SCORE.INTER.CONST>
1

>  <SCORE.INTER.POLAR>
0

>  <SCORE.INTER.ROT>
8

>  <SCORE.INTER.SOLV>
22.1427

>  <SCORE.INTER.VDW>
-28.149

>  <SCORE.INTER.norm>
-0.682778

>  <SCORE.INTRA>
-6.28422

>  <SCORE.INTRA.DIHEDRAL>
-8.01342

>  <SCORE.INTRA.DIHEDRAL.0>
16.4846

>  <SCORE.INTRA.POLAR>
0

>  <SCORE.INTRA.POLAR.0>
0

>  <SCORE.INTRA.REPUL>
0

>  <SCORE.INTRA.REPUL.0>
0

>  <SCORE.INTRA.SOLV>
0.240496

>  <SCORE.INTRA.SOLV.lig_0>
-82.6983

>  <SCORE.INTRA.VDW>
-2.39776

>  <SCORE.INTRA.VDW.0>
-2.11466

>  <SCORE.INTRA.norm>
-0.241701

>  <SCORE.RESTR>
0

>  <SCORE.RESTR.CAVITY>
0

>  <SCORE.RESTR.norm>
0

>  <SCORE.SYSTEM>
0

>  <SCORE.SYSTEM.CONST>
0

>  <SCORE.SYSTEM.DIHEDRAL>
0

>  <SCORE.SYSTEM.SOLV>
0

>  <SCORE.SYSTEM.norm>
0

>  <SCORE.heavy>
26

>  <SCORE.norm>
-0.924479

>  <RMSD>
9.206

$$$$
ligand
 OpenBabel11021811423D
libRbt.so/2013.1/901 2013/11/27
 26 27  0  0  0  0  0  0  0  0999 V2000
    3.8767  -11.1491 -100.8622 C   0  0  0  0  0  0  0  0  0  0  0  0
   -2.3691  -12.4259  -98.3804 C   0  0  0  0  0  0  0  0  0  0  0  0
    0.3603  -15.6954  -93.9977 P   0  0  2  0  0  0  0  0  0  0  0  0
    2.5445  -16.2716  -95.6002 P   0  0  2  0  0  0  0  0  0  0  0  0
   -0.8333   -9.7076  -97.9292 C   0  0  0  0  0  0  0  0  0  0  0  0
    0.5413  -11.3082  -99.2365 C   0  0  0  0  0  0  0  0  0  0  0  0
    0.4308  -10.0455  -98.6686 C   0  0  0  0  0  0  0  0  0  0  0  0
    1.4701   -9.1292  -98.8539 C   0  0  0  0  0  0  0  0  0  0  0  0
    1.4698   -7.8873  -98.3685 N   0  0  0  0  0  0  0  0  0  0  0  0
    2.5734   -9.5106  -99.5726 N   0  0  0  0  0  0  0  0  0  0  0  0
    2.6623  -10.7669 -100.1029 C   0  0  0  0  0  0  0  0  0  0  0  0
    1.6620  -11.6730  -99.9514 N   0  0  0  0  0  0  0  0  0  0  0  0
    1.0995  -15.1182  -92.8066 O   0  5  0  0  0  0  0  0  0  0  0  0
    3.4298  -16.1722  -94.3783 O   0  0  0  0  0  0  0  0  0  0  0  0
   -1.5673  -11.6739  -94.6181 S   0  0  0  0  0  0  0  0  0  0  0  0
   -0.9971  -10.4859  -95.5771 C   0  0  0  0  0  0  0  0  0  0  0  0
    0.0718  -17.1550  -93.6568 O   0  0  0  0  0  0  0  0  0  0  0  0
    3.2160  -15.6944  -96.8296 O   0  5  0  0  0  0  0  0  0  0  0  0
   -1.2263  -10.6698  -96.9276 N   0  0  0  0  0  0  0  0  0  0  0  0
    1.2511  -15.3867  -95.3081 O   0  0  0  0  0  0  0  0  0  0  0  0
    2.1970  -17.7304  -95.8169 O   0  0  0  0  0  0  0  0  0  0  0  0
   -1.9061  -11.8501  -97.1014 C   0  0  1  0  0  0  0  0  0  0  0  0
   -2.1464  -12.4793  -95.8698 C   0  0  2  0  0  0  0  0  0  0  0  0
   -2.8387  -13.7486  -95.4386 C   0  0  0  0  0  0  0  0  0  0  0  0
   -1.8593  -14.9260  -95.3834 C   0  0  0  0  0  0  0  0  0  0  0  0
   -0.8649  -14.6683  -94.3997 O   0  0  0  0  0  0  0  0  0  0  0  0
  1 11  1  0  0  0  0
  3 13  1  1  0  0  0
  3 17  2  0  0  0  0
  3 20  1  0  0  0  0
  3 26  1  0  0  0  0
  4 14  1  1  0  0  0
  4 18  1  0  0  0  0
  4 21  2  0  0  0  0
  4 20  1  0  0  0  0
  5 19  1  0  0  0  0
  5  7  1  0  0  0  0
  6  7  2  0  0  0  0
  6 12  1  0  0  0  0
  7  8  1  0  0  0  0
  8  9  1  0  0  0  0
  8 10  2  0  0  0  0
 10 11  1  0  0  0  0
 11 12  2  0  0  0  0
 15 23  1  0  0  0  0
 15 16  1  0  0  0  0
 16 19  1  0  0  0  0
 19 22  1  0  0  0  0
 22  2  1  1  0  0  0
 22 23  1  0  0  0  0
 23 24  1  1  0  0  0
 24 25  1  0  0  0  0
 25 26  1  0  0  0  0
M  CHG  2  13  -1  18  -1
M  END
>  <CHROM.1>
77.12832585,100.77785735,51.36405496,-56.29877915,-89.61754949,63.17836334
178.57486421,-173.66624392,0.51308392,-13.19337176,-96.41238796,-1.58989509
-0.50816199,2.50729567

>  <Name>
ligand

>  <RI>
0

>  <Rbt.Current_Directory>
/home/itssahil/PROJECTS/Mol_Feturizer/New_Systems/rnas/2CKY

>  <Rbt.Executable>
rbdock ($Id: //depot/dev/client3/rdock/2013.1/src/exe/rbdock.cxx#4 $)

>  <Rbt.Library>
libRbt.so (2013.1, Build901 2013/11/27)

>  <Rbt.Parameter_File>
/export/apps/rDock/src/rDock_2013.1_src/data/scripts/dock_solv.prm

>  <Rbt.Receptor>
prm/pocket_docking_6.prm

>  <SCORE>
-18.4691

>  <SCORE.INTER>
-11.052

>  <SCORE.INTER.CONST>
1

>  <SCORE.INTER.POLAR>
0

>  <SCORE.INTER.ROT>
8

>  <SCORE.INTER.SOLV>
7.18245

>  <SCORE.INTER.VDW>
-18.6955

>  <SCORE.INTER.norm>
-0.425076

>  <SCORE.INTRA>
-7.41713

>  <SCORE.INTRA.DIHEDRAL>
-10.965

>  <SCORE.INTRA.DIHEDRAL.0>
16.4846

>  <SCORE.INTRA.POLAR>
0

>  <SCORE.INTRA.POLAR.0>
0

>  <SCORE.INTRA.REPUL>
0

>  <SCORE.INTRA.REPUL.0>
0

>  <SCORE.INTRA.SOLV>
-0.351618

>  <SCORE.INTRA.SOLV.lig_0>
-82.6983

>  <SCORE.INTRA.VDW>
-1.75881

>  <SCORE.INTRA.VDW.0>
-2.11466

>  <SCORE.INTRA.norm>
-0.285274

>  <SCORE.RESTR>
0

>  <SCORE.RESTR.CAVITY>
0

>  <SCORE.RESTR.norm>
0

>  <SCORE.SYSTEM>
0

>  <SCORE.SYSTEM.CONST>
0

>  <SCORE.SYSTEM.DIHEDRAL>
0

>  <SCORE.SYSTEM.SOLV>
0

>  <SCORE.SYSTEM.norm>
0

>  <SCORE.heavy>
26

>  <SCORE.norm>
-0.710351

>  <RMSD>
9.223

$$$$
ligand
 OpenBabel11021811423D
libRbt.so/2013.1/901 2013/11/27
 26 27  0  0  0  0  0  0  0  0999 V2000
    0.5194  -22.0595 -100.9823 C   0  0  0  0  0  0  0  0  0  0  0  0
    1.9633  -17.1522  -97.7359 C   0  0  0  0  0  0  0  0  0  0  0  0
    1.6866  -14.8404  -92.8362 P   0  0  2  0  0  0  0  0  0  0  0  0
    1.6467  -17.0848  -91.2139 P   0  0  2  0  0  0  0  0  0  0  0  0
    3.4345  -17.1442 -100.5263 C   0  0  0  0  0  0  0  0  0  0  0  0
    3.3036  -19.6140 -100.7348 C   0  0  0  0  0  0  0  0  0  0  0  0
    2.6263  -18.4033 -100.6688 C   0  0  0  0  0  0  0  0  0  0  0  0
    1.2284  -18.4108 -100.6823 C   0  0  0  0  0  0  0  0  0  0  0  0
    0.4723  -17.3148 -100.6111 N   0  0  0  0  0  0  0  0  0  0  0  0
    0.5703  -19.6094 -100.7800 N   0  0  0  0  0  0  0  0  0  0  0  0
    1.2644  -20.7834 -100.8633 C   0  0  0  0  0  0  0  0  0  0  0  0
    2.6222  -20.8078 -100.8378 N   0  0  0  0  0  0  0  0  0  0  0  0
    2.0570  -13.3765  -92.7021 O   0  5  0  0  0  0  0  0  0  0  0  0
    1.4789  -17.3002  -89.7266 O   0  0  0  0  0  0  0  0  0  0  0  0
    5.8090  -16.4367  -97.4883 S   0  0  0  0  0  0  0  0  0  0  0  0
    5.3663  -16.6760  -99.0385 C   0  0  0  0  0  0  0  0  0  0  0  0
    0.2458  -14.8736  -93.3390 O   0  0  0  0  0  0  0  0  0  0  0  0
    2.7963  -17.8977  -91.7737 O   0  5  0  0  0  0  0  0  0  0  0  0
    4.0234  -16.9452  -99.2237 N   0  0  0  0  0  0  0  0  0  0  0  0
    2.0100  -15.5465  -91.4210 O   0  0  0  0  0  0  0  0  0  0  0  0
    0.3467  -17.4578  -91.8970 O   0  0  0  0  0  0  0  0  0  0  0  0
    3.3995  -16.9313  -98.0005 C   0  0  1  0  0  0  0  0  0  0  0  0
    4.3129  -16.6513  -96.9721 C   0  0  2  0  0  0  0  0  0  0  0  0
    4.2165  -16.4937  -95.4746 C   0  0  0  0  0  0  0  0  0  0  0  0
    3.0279  -15.6092  -95.0831 C   0  0  0  0  0  0  0  0  0  0  0  0
    2.8848  -15.6083  -93.6680 O   0  0  0  0  0  0  0  0  0  0  0  0
  1 11  1  0  0  0  0
  3 13  1  1  0  0  0
  3 17  2  0  0  0  0
  3 20  1  0  0  0  0
  3 26  1  0  0  0  0
  4 14  1  1  0  0  0
  4 18  1  0  0  0  0
  4 21  2  0  0  0  0
  4 20  1  0  0  0  0
  5 19  1  0  0  0  0
  5  7  1  0  0  0  0
  6  7  2  0  0  0  0
  6 12  1  0  0  0  0
  7  8  1  0  0  0  0
  8  9  1  0  0  0  0
  8 10  2  0  0  0  0
 10 11  1  0  0  0  0
 11 12  2  0  0  0  0
 15 23  1  0  0  0  0
 15 16  1  0  0  0  0
 16 19  1  0  0  0  0
 19 22  1  0  0  0  0
 22  2  1  6  0  0  0
 22 23  1  0  0  0  0
 23 24  1  6  0  0  0
 24 25  1  0  0  0  0
 25 26  1  0  0  0  0
M  CHG  2  13  -1  18  -1
M  END
>  <CHROM.1>
176.47793740,128.09111602,-72.94476045,-155.66808415,133.65661889,173.57158345
-176.97409766,-81.22524938,2.46652459,-17.13311085,-96.12059571,1.48534783
-0.69063943,-1.96587202

>  <Name>
ligand

>  <RI>
0

>  <Rbt.Current_Directory>
/home/itssahil/PROJECTS/Mol_Feturizer/New_Systems/rnas/2CKY

>  <Rbt.Executable>
rbdock ($Id: //depot/dev/client3/rdock/2013.1/src/exe/rbdock.cxx#4 $)

>  <Rbt.Library>
libRbt.so (2013.1, Build901 2013/11/27)

>  <Rbt.Parameter_File>
/export/apps/rDock/src/rDock_2013.1_src/data/scripts/dock_solv.prm

>  <Rbt.Receptor>
prm/pocket_docking_7.prm

>  <SCORE>
-17.1626

>  <SCORE.INTER>
-12.0702

>  <SCORE.INTER.CONST>
1

>  <SCORE.INTER.POLAR>
0

>  <SCORE.INTER.ROT>
8

>  <SCORE.INTER.SOLV>
9.65188

>  <SCORE.INTER.VDW>
-20.1974

>  <SCORE.INTER.norm>
-0.464237

>  <SCORE.INTRA>
-5.09239

>  <SCORE.INTRA.DIHEDRAL>
-10.3692

>  <SCORE.INTRA.DIHEDRAL.0>
16.4846

>  <SCORE.INTRA.POLAR>
0

>  <SCORE.INTRA.POLAR.0>
0

>  <SCORE.INTRA.REPUL>
0

>  <SCORE.INTRA.REPUL.0>
0

>  <SCORE.INTRA.SOLV>
2.997

>  <SCORE.INTRA.SOLV.lig_0>
-82.6983

>  <SCORE.INTRA.VDW>
-1.40627

>  <SCORE.INTRA.VDW.0>
-2.11466

>  <SCORE.INTRA.norm>
-0.195861

>  <SCORE.RESTR>
0

>  <SCORE.RESTR.CAVITY>
0

>  <SCORE.RESTR.norm>
0

>  <SCORE.SYSTEM>
0

>  <SCORE.SYSTEM.CONST>
0

>  <SCORE.SYSTEM.DIHEDRAL>
0

>  <SCORE.SYSTEM.SOLV>
0

>  <SCORE.SYSTEM.norm>
0

>  <SCORE.heavy>
26

>  <SCORE.norm>
-0.660098

>  <RMSD>
9.224

$$$$
ligand
 OpenBabel11021811423D
libRbt.so/2013.1/901 2013/11/27
 26 27  0  0  0  0  0  0  0  0999 V2000
    0.8503  -16.1438 -101.2111 C   0  0  0  0  0  0  0  0  0  0  0  0
    0.5191  -11.7632  -96.9834 C   0  0  0  0  0  0  0  0  0  0  0  0
   -0.1036  -15.8324  -93.8148 P   0  0  2  0  0  0  0  0  0  0  0  0
    0.1554  -17.3054  -91.4838 P   0  0  2  0  0  0  0  0  0  0  0  0
   -2.0759  -11.8583  -98.7746 C   0  0  0  0  0  0  0  0  0  0  0  0
   -0.1538  -12.7580 -100.0615 C   0  0  0  0  0  0  0  0  0  0  0  0
   -1.3581  -13.0114  -99.4178 C   0  0  0  0  0  0  0  0  0  0  0  0
   -1.8218  -14.3284  -99.3483 C   0  0  0  0  0  0  0  0  0  0  0  0
   -2.9543  -14.6935  -98.7468 N   0  0  0  0  0  0  0  0  0  0  0  0
   -1.0847  -15.3252  -99.9337 N   0  0  0  0  0  0  0  0  0  0  0  0
    0.0870  -15.0424 -100.5773 C   0  0  0  0  0  0  0  0  0  0  0  0
    0.5692  -13.7746 -100.6480 N   0  0  0  0  0  0  0  0  0  0  0  0
   -1.3230  -16.6881  -94.0955 O   0  5  0  0  0  0  0  0  0  0  0  0
   -1.2938  -17.7108  -91.3343 O   0  0  0  0  0  0  0  0  0  0  0  0
   -2.8141  -11.8802  -94.9245 S   0  0  0  0  0  0  0  0  0  0  0  0
   -3.1252  -11.8768  -96.5243 C   0  0  0  0  0  0  0  0  0  0  0  0
    0.9958  -16.3339  -94.7474 O   0  0  0  0  0  0  0  0  0  0  0  0
    0.8271  -17.1135  -90.1393 O   0  5  0  0  0  0  0  0  0  0  0  0
   -2.0056  -11.8276  -97.3332 N   0  0  0  0  0  0  0  0  0  0  0  0
    0.1675  -15.8940  -92.2246 O   0  0  0  0  0  0  0  0  0  0  0  0
    0.8666  -18.3747  -92.2880 O   0  0  0  0  0  0  0  0  0  0  0  0
   -0.8880  -11.7999  -96.5359 C   0  0  1  0  0  0  0  0  0  0  0  0
   -1.2378  -11.8312  -95.1768 C   0  0  2  0  0  0  0  0  0  0  0  0
   -0.4693  -11.8385  -93.8784 C   0  0  0  0  0  0  0  0  0  0  0  0
    0.3205  -13.1403  -93.7060 C   0  0  0  0  0  0  0  0  0  0  0  0
   -0.5617  -14.2489  -93.8310 O   0  0  0  0  0  0  0  0  0  0  0  0
  1 11  1  0  0  0  0
  3 13  1  6  0  0  0
  3 17  2  0  0  0  0
  3 20  1  0  0  0  0
  3 26  1  0  0  0  0
  4 14  1  1  0  0  0
  4 18  1  0  0  0  0
  4 21  2  0  0  0  0
  4 20  1  0  0  0  0
  5 19  1  0  0  0  0
  5  7  1  0  0  0  0
  6  7  2  0  0  0  0
  6 12  1  0  0  0  0
  7  8  1  0  0  0  0
  8  9  1  0  0  0  0
  8 10  2  0  0  0  0
 10 11  1  0  0  0  0
 11 12  2  0  0  0  0
 15 23  1  0  0  0  0
 15 16  1  0  0  0  0
 16 19  1  0  0  0  0
 19 22  1  0  0  0  0
 22  2  1  6  0  0  0
 22 23  1  0  0  0  0
 23 24  1  6  0  0  0
 24 25  1  0  0  0  0
 25 26  1  0  0  0  0
M  CHG  2  13  -1  18  -1
M  END
>  <CHROM.1>
47.26507289,-120.05506749,-105.82278665,-76.42196405,112.49361315,-54.62269752
175.57280759,-175.11821860,-0.67693507,-14.52018483,-95.56929711,-1.92161583
-1.17164723,1.69367281

>  <Name>
ligand

>  <RI>
0

>  <Rbt.Current_Directory>
/home/itssahil/PROJECTS/Mol_Feturizer/New_Systems/rnas/2CKY

>  <Rbt.Executable>
rbdock ($Id: //depot/dev/client3/rdock/2013.1/src/exe/rbdock.cxx#4 $)

>  <Rbt.Library>
libRbt.so (2013.1, Build901 2013/11/27)

>  <Rbt.Parameter_File>
/export/apps/rDock/src/rDock_2013.1_src/data/scripts/dock_solv.prm

>  <Rbt.Receptor>
prm/pocket_docking_6.prm

>  <SCORE>
-17.9756

>  <SCORE.INTER>
-11.0358

>  <SCORE.INTER.CONST>
1

>  <SCORE.INTER.POLAR>
0

>  <SCORE.INTER.ROT>
8

>  <SCORE.INTER.SOLV>
12.6949

>  <SCORE.INTER.VDW>
-20.5222

>  <SCORE.INTER.norm>
-0.424454

>  <SCORE.INTRA>
-6.93983

>  <SCORE.INTRA.DIHEDRAL>
-10.7755

>  <SCORE.INTRA.DIHEDRAL.0>
16.4846

>  <SCORE.INTRA.POLAR>
0

>  <SCORE.INTRA.POLAR.0>
0

>  <SCORE.INTRA.REPUL>
0

>  <SCORE.INTRA.REPUL.0>
0

>  <SCORE.INTRA.SOLV>
1.04129

>  <SCORE.INTRA.SOLV.lig_0>
-82.6983

>  <SCORE.INTRA.VDW>
-2.0727

>  <SCORE.INTRA.VDW.0>
-2.11466

>  <SCORE.INTRA.norm>
-0.266917

>  <SCORE.RESTR>
0

>  <SCORE.RESTR.CAVITY>
0

>  <SCORE.RESTR.norm>
0

>  <SCORE.SYSTEM>
0

>  <SCORE.SYSTEM.CONST>
0

>  <SCORE.SYSTEM.DIHEDRAL>
0

>  <SCORE.SYSTEM.SOLV>
0

>  <SCORE.SYSTEM.norm>
0

>  <SCORE.heavy>
26

>  <SCORE.norm>
-0.691371

>  <RMSD>
9.261

$$$$
ligand
 OpenBabel11021811423D
libRbt.so/2013.1/901 2013/11/27
 26 27  0  0  0  0  0  0  0  0999 V2000
    4.2488  -10.5542 -100.0658 C   0  0  0  0  0  0  0  0  0  0  0  0
   -2.2387  -12.1380  -95.4939 C   0  0  0  0  0  0  0  0  0  0  0  0
   -0.3745  -16.5224  -95.2296 P   0  0  2  0  0  0  0  0  0  0  0  0
   -0.3557  -19.2723  -94.9003 P   0  0  2  0  0  0  0  0  0  0  0  0
   -1.0247  -10.3913  -97.8234 C   0  0  0  0  0  0  0  0  0  0  0  0
    0.5876  -10.9842  -99.6149 C   0  0  0  0  0  0  0  0  0  0  0  0
    0.3794  -10.4316  -98.3578 C   0  0  0  0  0  0  0  0  0  0  0  0
    1.4694   -9.8901  -97.6701 C   0  0  0  0  0  0  0  0  0  0  0  0
    1.3892   -9.3229  -96.4661 N   0  0  0  0  0  0  0  0  0  0  0  0
    2.7116   -9.9387  -98.2480 N   0  0  0  0  0  0  0  0  0  0  0  0
    2.8888  -10.5066  -99.4781 C   0  0  0  0  0  0  0  0  0  0  0  0
    1.8461  -11.0273 -100.1755 N   0  0  0  0  0  0  0  0  0  0  0  0
    0.9625  -16.4732  -95.9424 O   0  5  0  0  0  0  0  0  0  0  0  0
    1.1082  -19.2424  -95.2780 O   0  0  0  0  0  0  0  0  0  0  0  0
   -2.7941  -13.6630  -99.0617 S   0  0  0  0  0  0  0  0  0  0  0  0
   -1.9910  -12.2482  -99.1587 C   0  0  0  0  0  0  0  0  0  0  0  0
   -0.0986  -16.1515  -93.7749 O   0  0  0  0  0  0  0  0  0  0  0  0
   -1.0649  -20.4730  -95.4928 O   0  5  0  0  0  0  0  0  0  0  0  0
   -1.7563  -11.6296  -97.9453 N   0  0  0  0  0  0  0  0  0  0  0  0
   -1.0235  -17.9695  -95.5310 O   0  0  0  0  0  0  0  0  0  0  0  0
   -0.4555  -19.2859  -93.3884 O   0  0  0  0  0  0  0  0  0  0  0  0
   -2.2801  -12.4108  -96.9450 C   0  0  1  0  0  0  0  0  0  0  0  0
   -2.8751  -13.5690  -97.4694 C   0  0  2  0  0  0  0  0  0  0  0  0
   -3.5756  -14.7681  -96.8794 C   0  0  0  0  0  0  0  0  0  0  0  0
   -2.7903  -15.3458  -95.6971 C   0  0  0  0  0  0  0  0  0  0  0  0
   -1.4724  -15.6737  -96.1195 O   0  0  0  0  0  0  0  0  0  0  0  0
  1 11  1  0  0  0  0
  3 13  1  6  0  0  0
  3 17  2  0  0  0  0
  3 20  1  0  0  0  0
  3 26  1  0  0  0  0
  4 14  1  6  0  0  0
  4 18  1  0  0  0  0
  4 21  2  0  0  0  0
  4 20  1  0  0  0  0
  5 19  1  0  0  0  0
  5  7  1  0  0  0  0
  6  7  2  0  0  0  0
  6 12  1  0  0  0  0
  7  8  1  0  0  0  0
  8  9  1  0  0  0  0
  8 10  2  0  0  0  0
 10 11  1  0  0  0  0
 11 12  2  0  0  0  0
 15 23  1  0  0  0  0
 15 16  1  0  0  0  0
 16 19  1  0  0  0  0
 19 22  1  0  0  0  0
 22  2  1  1  0  0  0
 22 23  1  0  0  0  0
 23 24  1  1  0  0  0
 24 25  1  0  0  0  0
 25 26  1  0  0  0  0
M  CHG  2  13  -1  18  -1
M  END
>  <CHROM.1>
68.73118192,-58.79648174,47.47169063,-52.92322399,132.69758347,-56.57452122
-170.40325113,-171.45963511,-0.43400135,-14.36631692,-96.83227319,-1.39988587
0.00898014,2.69724288

>  <Name>
ligand

>  <RI>
0

>  <Rbt.Current_Directory>
/home/itssahil/PROJECTS/Mol_Feturizer/New_Systems/rnas/2CKY

>  <Rbt.Executable>
rbdock ($Id: //depot/dev/client3/rdock/2013.1/src/exe/rbdock.cxx#4 $)

>  <Rbt.Library>
libRbt.so (2013.1, Build901 2013/11/27)

>  <Rbt.Parameter_File>
/export/apps/rDock/src/rDock_2013.1_src/data/scripts/dock_solv.prm

>  <Rbt.Receptor>
prm/pocket_docking_6.prm

>  <SCORE>
-17.8062

>  <SCORE.INTER>
-11.0778

>  <SCORE.INTER.CONST>
1

>  <SCORE.INTER.POLAR>
0

>  <SCORE.INTER.ROT>
8

>  <SCORE.INTER.SOLV>
13.0088

>  <SCORE.INTER.VDW>
-20.6548

>  <SCORE.INTER.norm>
-0.426071

>  <SCORE.INTRA>
-6.72833

>  <SCORE.INTRA.DIHEDRAL>
-10.9989

>  <SCORE.INTRA.DIHEDRAL.0>
16.4846

>  <SCORE.INTRA.POLAR>
0

>  <SCORE.INTRA.POLAR.0>
0

>  <SCORE.INTRA.REPUL>
0

>  <SCORE.INTRA.REPUL.0>
0

>  <SCORE.INTRA.SOLV>
-0.139577

>  <SCORE.INTRA.SOLV.lig_0>
-82.6983

>  <SCORE.INTRA.VDW>
-1.15909

>  <SCORE.INTRA.VDW.0>
-2.11466

>  <SCORE.INTRA.norm>
-0.258782

>  <SCORE.RESTR>
0

>  <SCORE.RESTR.CAVITY>
0

>  <SCORE.RESTR.norm>
0

>  <SCORE.SYSTEM>
0

>  <SCORE.SYSTEM.CONST>
0

>  <SCORE.SYSTEM.DIHEDRAL>
0

>  <SCORE.SYSTEM.SOLV>
0

>  <SCORE.SYSTEM.norm>
0

>  <SCORE.heavy>
26

>  <SCORE.norm>
-0.684853

>  <RMSD>
9.280

$$$$
ligand
 OpenBabel11021811423D
libRbt.so/2013.1/901 2013/11/27
 26 27  0  0  0  0  0  0  0  0999 V2000
    3.3458  -12.0908 -100.5651 C   0  0  0  0  0  0  0  0  0  0  0  0
    0.1232  -17.4025  -97.3454 C   0  0  0  0  0  0  0  0  0  0  0  0
    0.1089  -18.5325  -92.3369 P   0  0  2  0  0  0  0  0  0  0  0  0
    1.8674  -17.5346  -90.4442 P   0  0  2  0  0  0  0  0  0  0  0  0
   -1.1494  -15.4870  -99.5047 C   0  0  0  0  0  0  0  0  0  0  0  0
    0.9337  -14.9103 -100.7247 C   0  0  0  0  0  0  0  0  0  0  0  0
    0.0251  -14.5765  -99.7288 C   0  0  0  0  0  0  0  0  0  0  0  0
    0.2101  -13.3869  -99.0181 C   0  0  0  0  0  0  0  0  0  0  0  0
   -0.6017  -12.9573  -98.0516 N   0  0  0  0  0  0  0  0  0  0  0  0
    1.2917  -12.5975  -99.3120 N   0  0  0  0  0  0  0  0  0  0  0  0
    2.1798  -12.9621 -100.2843 C   0  0  0  0  0  0  0  0  0  0  0  0
    2.0175  -14.1045 -101.0007 N   0  0  0  0  0  0  0  0  0  0  0  0
   -1.0653  -19.4908  -92.3664 O   0  5  0  0  0  0  0  0  0  0  0  0
    3.0301  -18.2193  -91.1269 O   0  0  0  0  0  0  0  0  0  0  0  0
   -2.9114  -15.3136  -96.0070 S   0  0  0  0  0  0  0  0  0  0  0  0
   -2.6085  -14.9544  -97.5676 C   0  0  0  0  0  0  0  0  0  0  0  0
    1.1311  -19.0763  -93.3316 O   0  0  0  0  0  0  0  0  0  0  0  0
    2.0167  -17.5427  -88.9365 O   0  5  0  0  0  0  0  0  0  0  0  0
   -1.5450  -15.6389  -98.1249 N   0  0  0  0  0  0  0  0  0  0  0  0
    0.5617  -18.3791  -90.7951 O   0  0  0  0  0  0  0  0  0  0  0  0
    1.7814  -16.1141  -90.9645 O   0  0  0  0  0  0  0  0  0  0  0  0
   -1.0139  -16.4754  -97.1743 C   0  0  1  0  0  0  0  0  0  0  0  0
   -1.7126  -16.3680  -95.9615 C   0  0  2  0  0  0  0  0  0  0  0  0
   -1.6059  -17.0263  -94.6081 C   0  0  0  0  0  0  0  0  0  0  0  0
   -0.6128  -16.2864  -93.7056 C   0  0  0  0  0  0  0  0  0  0  0  0
   -0.4680  -16.9950  -92.4809 O   0  0  0  0  0  0  0  0  0  0  0  0
  1 11  1  0  0  0  0
  3 13  1  6  0  0  0
  3 17  2  0  0  0  0
  3 20  1  0  0  0  0
  3 26  1  0  0  0  0
  4 14  1  6  0  0  0
  4 18  1  0  0  0  0
  4 21  2  0  0  0  0
  4 20  1  0  0  0  0
  5 19  1  0  0  0  0
  5  7  1  0  0  0  0
  6  7  2  0  0  0  0
  6 12  1  0  0  0  0
  7  8  1  0  0  0  0
  8  9  1  0  0  0  0
  8 10  2  0  0  0  0
 10 11  1  0  0  0  0
 11 12  2  0  0  0  0
 15 23  1  0  0  0  0
 15 16  1  0  0  0  0
 16 19  1  0  0  0  0
 19 22  1  0  0  0  0
 22  2  1  6  0  0  0
 22 23  1  0  0  0  0
 23 24  1  6  0  0  0
 24 25  1  0  0  0  0
 25 26  1  0  0  0  0
M  CHG  2  13  -1  18  -1
M  END
>  <CHROM.1>
174.40325536,100.03159560,143.26288122,-61.25881122,-93.38461716,-175.67619694
61.88315762,-92.73524860,0.18412950,-16.18217960,-95.24851278,-1.63457250
0.29087306,2.03539586

>  <Name>
ligand

>  <RI>
0

>  <Rbt.Current_Directory>
/home/itssahil/PROJECTS/Mol_Feturizer/New_Systems/rnas/2CKY

>  <Rbt.Executable>
rbdock ($Id: //depot/dev/client3/rdock/2013.1/src/exe/rbdock.cxx#4 $)

>  <Rbt.Library>
libRbt.so (2013.1, Build901 2013/11/27)

>  <Rbt.Parameter_File>
/export/apps/rDock/src/rDock_2013.1_src/data/scripts/dock_solv.prm

>  <Rbt.Receptor>
prm/pocket_docking_3.prm

>  <SCORE>
-12.8719

>  <SCORE.INTER>
-7.54449

>  <SCORE.INTER.CONST>
1

>  <SCORE.INTER.POLAR>
0

>  <SCORE.INTER.ROT>
8

>  <SCORE.INTER.SOLV>
15.6383

>  <SCORE.INTER.VDW>
-19.1758

>  <SCORE.INTER.norm>
-0.290173

>  <SCORE.INTRA>
-5.38438

>  <SCORE.INTRA.DIHEDRAL>
-10.3358

>  <SCORE.INTRA.DIHEDRAL.0>
16.4846

>  <SCORE.INTRA.POLAR>
0

>  <SCORE.INTRA.POLAR.0>
0

>  <SCORE.INTRA.REPUL>
0

>  <SCORE.INTRA.REPUL.0>
0

>  <SCORE.INTRA.SOLV>
3.59259

>  <SCORE.INTRA.SOLV.lig_0>
-82.6983

>  <SCORE.INTRA.VDW>
-2.01278

>  <SCORE.INTRA.VDW.0>
-2.11466

>  <SCORE.INTRA.norm>
-0.207092

>  <SCORE.RESTR>
0.0569606

>  <SCORE.RESTR.CAVITY>
0.0569606

>  <SCORE.RESTR.norm>
0.00219079

>  <SCORE.SYSTEM>
0

>  <SCORE.SYSTEM.CONST>
0

>  <SCORE.SYSTEM.DIHEDRAL>
0

>  <SCORE.SYSTEM.SOLV>
0

>  <SCORE.SYSTEM.norm>
0

>  <SCORE.heavy>
26

>  <SCORE.norm>
-0.495073

>  <RMSD>
9.283

$$$$
ligand
 OpenBabel11021811423D
libRbt.so/2013.1/901 2013/11/27
 26 27  0  0  0  0  0  0  0  0999 V2000
   -2.9204  -18.5444 -100.2977 C   0  0  0  0  0  0  0  0  0  0  0  0
   -0.3166  -14.0419  -97.3780 C   0  0  0  0  0  0  0  0  0  0  0  0
    0.8479  -15.7809  -92.2310 P   0  0  2  0  0  0  0  0  0  0  0  0
   -0.8190  -17.9535  -91.8169 P   0  0  2  0  0  0  0  0  0  0  0  0
   -2.7045  -12.9382  -99.1191 C   0  0  0  0  0  0  0  0  0  0  0  0
   -1.8943  -14.9751 -100.2831 C   0  0  0  0  0  0  0  0  0  0  0  0
   -2.8171  -14.4076  -99.4141 C   0  0  0  0  0  0  0  0  0  0  0  0
   -3.7720  -15.2320  -98.8117 C   0  0  0  0  0  0  0  0  0  0  0  0
   -4.6976  -14.8034  -97.9530 N   0  0  0  0  0  0  0  0  0  0  0  0
   -3.7806  -16.5696  -99.1117 N   0  0  0  0  0  0  0  0  0  0  0  0
   -2.8719  -17.0960  -99.9861 C   0  0  0  0  0  0  0  0  0  0  0  0
   -1.9239  -16.3219 -100.5750 N   0  0  0  0  0  0  0  0  0  0  0  0
    1.6017  -16.5825  -93.2737 O   0  5  0  0  0  0  0  0  0  0  0  0
   -2.2879  -18.2694  -91.9877 O   0  0  0  0  0  0  0  0  0  0  0  0
   -2.6780  -11.5866  -95.4393 S   0  0  0  0  0  0  0  0  0  0  0  0
   -3.1787  -11.7716  -96.9791 C   0  0  0  0  0  0  0  0  0  0  0  0
    1.7119  -15.7947  -90.9727 O   0  0  0  0  0  0  0  0  0  0  0  0
   -0.3577  -18.1776  -90.3912 O   0  5  0  0  0  0  0  0  0  0  0  0
   -2.3985  -12.6167  -97.7456 N   0  0  0  0  0  0  0  0  0  0  0  0
   -0.6391  -16.4017  -92.1341 O   0  0  0  0  0  0  0  0  0  0  0  0
   -0.0320  -18.8237  -92.7757 O   0  0  0  0  0  0  0  0  0  0  0  0
   -1.3739  -13.0958  -96.9671 C   0  0  1  0  0  0  0  0  0  0  0  0
   -1.4487  -12.5814  -95.6632 C   0  0  2  0  0  0  0  0  0  0  0  0
   -0.6389  -12.7527  -94.4018 C   0  0  0  0  0  0  0  0  0  0  0  0
   -0.2825  -14.2241  -94.1643 C   0  0  0  0  0  0  0  0  0  0  0  0
    0.3748  -14.3550  -92.9098 O   0  0  0  0  0  0  0  0  0  0  0  0
  1 11  1  0  0  0  0
  3 13  1  6  0  0  0
  3 17  2  0  0  0  0
  3 20  1  0  0  0  0
  3 26  1  0  0  0  0
  4 14  1  6  0  0  0
  4 18  1  0  0  0  0
  4 21  2  0  0  0  0
  4 20  1  0  0  0  0
  5 19  1  0  0  0  0
  5  7  1  0  0  0  0
  6  7  2  0  0  0  0
  6 12  1  0  0  0  0
  7  8  1  0  0  0  0
  8  9  1  0  0  0  0
  8 10  2  0  0  0  0
 10 11  1  0  0  0  0
 11 12  2  0  0  0  0
 15 23  1  0  0  0  0
 15 16  1  0  0  0  0
 16 19  1  0  0  0  0
 19 22  1  0  0  0  0
 22  2  1  1  0  0  0
 22 23  1  0  0  0  0
 23 24  1  1  0  0  0
 24 25  1  0  0  0  0
 25 26  1  0  0  0  0
M  CHG  2  13  -1  18  -1
M  END
>  <CHROM.1>
55.88633476,-124.90257480,-115.70900696,-172.02760032,135.86474375,-174.86191912
176.25440763,48.83674382,-1.35395613,-15.29282322,-95.35125740,2.84480492
-1.17825154,-0.00837702

>  <Name>
ligand

>  <RI>
0

>  <Rbt.Current_Directory>
/home/itssahil/PROJECTS/Mol_Feturizer/New_Systems/rnas/2CKY

>  <Rbt.Executable>
rbdock ($Id: //depot/dev/client3/rdock/2013.1/src/exe/rbdock.cxx#4 $)

>  <Rbt.Library>
libRbt.so (2013.1, Build901 2013/11/27)

>  <Rbt.Parameter_File>
/export/apps/rDock/src/rDock_2013.1_src/data/scripts/dock_solv.prm

>  <Rbt.Receptor>
prm/pocket_docking_8.prm

>  <SCORE>
-17.6271

>  <SCORE.INTER>
-12.4501

>  <SCORE.INTER.CONST>
1

>  <SCORE.INTER.POLAR>
0

>  <SCORE.INTER.ROT>
8

>  <SCORE.INTER.SOLV>
20.5541

>  <SCORE.INTER.VDW>
-24.0848

>  <SCORE.INTER.norm>
-0.47885

>  <SCORE.INTRA>
-5.17702

>  <SCORE.INTRA.DIHEDRAL>
-11.3277

>  <SCORE.INTRA.DIHEDRAL.0>
16.4846

>  <SCORE.INTRA.POLAR>
0

>  <SCORE.INTRA.POLAR.0>
0

>  <SCORE.INTRA.REPUL>
0

>  <SCORE.INTRA.REPUL.0>
0

>  <SCORE.INTRA.SOLV>
3.4

>  <SCORE.INTRA.SOLV.lig_0>
-82.6983

>  <SCORE.INTRA.VDW>
-1.21317

>  <SCORE.INTRA.VDW.0>
-2.11466

>  <SCORE.INTRA.norm>
-0.199116

>  <SCORE.RESTR>
0

>  <SCORE.RESTR.CAVITY>
0

>  <SCORE.RESTR.norm>
0

>  <SCORE.SYSTEM>
0

>  <SCORE.SYSTEM.CONST>
0

>  <SCORE.SYSTEM.DIHEDRAL>
0

>  <SCORE.SYSTEM.SOLV>
0

>  <SCORE.SYSTEM.norm>
0

>  <SCORE.heavy>
26

>  <SCORE.norm>
-0.677966

>  <RMSD>
9.291

$$$$
ligand
 OpenBabel11021811423D
libRbt.so/2013.1/901 2013/11/27
 26 27  0  0  0  0  0  0  0  0999 V2000
    2.6627  -13.7546 -100.8140 C   0  0  0  0  0  0  0  0  0  0  0  0
   -2.0526  -15.0223  -95.2072 C   0  0  0  0  0  0  0  0  0  0  0  0
    0.7237  -17.8674  -90.2316 P   0  0  2  0  0  0  0  0  0  0  0  0
    3.3014  -17.1549  -89.5116 P   0  0  2  0  0  0  0  0  0  0  0  0
   -1.5430  -16.4311  -97.9833 C   0  0  0  0  0  0  0  0  0  0  0  0
    0.6647  -16.3851  -99.1166 C   0  0  0  0  0  0  0  0  0  0  0  0
   -0.4574  -15.6798  -98.7014 C   0  0  0  0  0  0  0  0  0  0  0  0
   -0.5541  -14.3209  -99.0148 C   0  0  0  0  0  0  0  0  0  0  0  0
   -1.5869  -13.5464  -98.6812 N   0  0  0  0  0  0  0  0  0  0  0  0
    0.4687  -13.7225  -99.7041 N   0  0  0  0  0  0  0  0  0  0  0  0
    1.5696  -14.4382 -100.0824 C   0  0  0  0  0  0  0  0  0  0  0  0
    1.6842  -15.7627  -99.8044 N   0  0  0  0  0  0  0  0  0  0  0  0
   -0.6328  -17.9672  -89.5623 O   0  5  0  0  0  0  0  0  0  0  0  0
    3.4817  -15.6651  -89.6968 O   0  0  0  0  0  0  0  0  0  0  0  0
   -0.1465  -18.4349  -94.9168 S   0  0  0  0  0  0  0  0  0  0  0  0
   -0.4976  -18.1019  -96.4731 C   0  0  0  0  0  0  0  0  0  0  0  0
    0.9653  -19.2115  -90.9134 O   0  0  0  0  0  0  0  0  0  0  0  0
    3.5467  -17.9154  -90.7989 O   0  5  0  0  0  0  0  0  0  0  0  0
   -1.1805  -16.9171  -96.6734 N   0  0  0  0  0  0  0  0  0  0  0  0
    1.7778  -17.3902  -89.1059 O   0  0  0  0  0  0  0  0  0  0  0  0
    4.2549  -17.6173  -88.4286 O   0  0  0  0  0  0  0  0  0  0  0  0
   -1.3806  -16.3139  -95.4562 C   0  0  1  0  0  0  0  0  0  0  0  0
   -0.8344  -17.0831  -94.4168 C   0  0  2  0  0  0  0  0  0  0  0  0
   -0.7326  -16.9318  -92.9190 C   0  0  0  0  0  0  0  0  0  0  0  0
    0.6314  -16.3673  -92.5077 C   0  0  0  0  0  0  0  0  0  0  0  0
    0.7775  -16.4648  -91.0963 O   0  0  0  0  0  0  0  0  0  0  0  0
  1 11  1  0  0  0  0
  3 13  1  1  0  0  0
  3 17  2  0  0  0  0
  3 20  1  0  0  0  0
  3 26  1  0  0  0  0
  4 14  1  6  0  0  0
  4 18  1  0  0  0  0
  4 21  2  0  0  0  0
  4 20  1  0  0  0  0
  5 19  1  0  0  0  0
  5  7  1  0  0  0  0
  6  7  2  0  0  0  0
  6 12  1  0  0  0  0
  7  8  1  0  0  0  0
  8  9  1  0  0  0  0
  8 10  2  0  0  0  0
 10 11  1  0  0  0  0
 11 12  2  0  0  0  0
 15 23  1  0  0  0  0
 15 16  1  0  0  0  0
 16 19  1  0  0  0  0
 19 22  1  0  0  0  0
 22  2  1  6  0  0  0
 22 23  1  0  0  0  0
 23 24  1  6  0  0  0
 24 25  1  0  0  0  0
 25 26  1  0  0  0  0
M  CHG  2  13  -1  18  -1
M  END
>  <CHROM.1>
-178.46194867,-83.36883909,67.86541736,99.75018427,81.98603182,-169.63741616
59.36586726,-102.53816370,0.73237522,-16.61760111,-94.06522877,-1.79087080
0.33478816,1.89946149

>  <Name>
ligand

>  <RI>
0

>  <Rbt.Current_Directory>
/home/itssahil/PROJECTS/Mol_Feturizer/New_Systems/rnas/2CKY

>  <Rbt.Executable>
rbdock ($Id: //depot/dev/client3/rdock/2013.1/src/exe/rbdock.cxx#4 $)

>  <Rbt.Library>
libRbt.so (2013.1, Build901 2013/11/27)

>  <Rbt.Parameter_File>
/export/apps/rDock/src/rDock_2013.1_src/data/scripts/dock_solv.prm

>  <Rbt.Receptor>
prm/pocket_docking_2.prm

>  <SCORE>
-8.72302

>  <SCORE.INTER>
-6.59379

>  <SCORE.INTER.CONST>
1

>  <SCORE.INTER.POLAR>
0

>  <SCORE.INTER.ROT>
8

>  <SCORE.INTER.SOLV>
24.0927

>  <SCORE.INTER.VDW>
-21.3601

>  <SCORE.INTER.norm>
-0.253607

>  <SCORE.INTRA>
-3.96901

>  <SCORE.INTRA.DIHEDRAL>
-7.6902

>  <SCORE.INTRA.DIHEDRAL.0>
16.4846

>  <SCORE.INTRA.POLAR>
0

>  <SCORE.INTRA.POLAR.0>
0

>  <SCORE.INTRA.REPUL>
0

>  <SCORE.INTRA.REPUL.0>
0

>  <SCORE.INTRA.SOLV>
2.74478

>  <SCORE.INTRA.SOLV.lig_0>
-82.6983

>  <SCORE.INTRA.VDW>
-1.4963

>  <SCORE.INTRA.VDW.0>
-2.11466

>  <SCORE.INTRA.norm>
-0.152654

>  <SCORE.RESTR>
1.83979

>  <SCORE.RESTR.CAVITY>
1.83979

>  <SCORE.RESTR.norm>
0.070761

>  <SCORE.SYSTEM>
0

>  <SCORE.SYSTEM.CONST>
0

>  <SCORE.SYSTEM.DIHEDRAL>
0

>  <SCORE.SYSTEM.SOLV>
0

>  <SCORE.SYSTEM.norm>
0

>  <SCORE.heavy>
26

>  <SCORE.norm>
-0.335501

>  <RMSD>
9.308

$$$$
ligand
 OpenBabel11021811423D
libRbt.so/2013.1/901 2013/11/27
 26 27  0  0  0  0  0  0  0  0999 V2000
   -2.7108  -14.8131  -99.9117 C   0  0  0  0  0  0  0  0  0  0  0  0
    3.1930  -16.1146  -99.9744 C   0  0  0  0  0  0  0  0  0  0  0  0
    4.2196  -15.4463  -93.8948 P   0  0  2  0  0  0  0  0  0  0  0  0
    2.4296  -17.2272  -92.7569 P   0  0  2  0  0  0  0  0  0  0  0  0
    2.7015  -13.0721 -100.6475 C   0  0  0  0  0  0  0  0  0  0  0  0
    0.7089  -14.4001 -101.3004 C   0  0  0  0  0  0  0  0  0  0  0  0
    1.2719  -13.4795 -100.4261 C   0  0  0  0  0  0  0  0  0  0  0  0
    0.5077  -13.0149  -99.3517 C   0  0  0  0  0  0  0  0  0  0  0  0
    0.9447  -12.1427  -98.4428 N   0  0  0  0  0  0  0  0  0  0  0  0
   -0.7784  -13.4664  -99.2053 N   0  0  0  0  0  0  0  0  0  0  0  0
   -1.3118  -14.3577 -100.0932 C   0  0  0  0  0  0  0  0  0  0  0  0
   -0.5882  -14.8373 -101.1378 N   0  0  0  0  0  0  0  0  0  0  0  0
    5.4199  -15.8674  -93.0700 O   0  5  0  0  0  0  0  0  0  0  0  0
    3.4284  -17.4541  -91.6445 O   0  0  0  0  0  0  0  0  0  0  0  0
    5.4068  -13.6572  -97.8712 S   0  0  0  0  0  0  0  0  0  0  0  0
    4.4555  -12.8328  -98.9064 C   0  0  0  0  0  0  0  0  0  0  0  0
    3.6550  -14.1973  -93.2232 O   0  0  0  0  0  0  0  0  0  0  0  0
    1.7236  -18.5092  -93.1488 O   0  5  0  0  0  0  0  0  0  0  0  0
    3.6424  -13.6199  -99.6999 N   0  0  0  0  0  0  0  0  0  0  0  0
    3.2559  -16.7345  -94.0280 O   0  0  0  0  0  0  0  0  0  0  0  0
    1.4298  -16.1878  -92.2922 O   0  0  0  0  0  0  0  0  0  0  0  0
    3.8616  -14.9378  -99.3829 C   0  0  1  0  0  0  0  0  0  0  0  0
    4.8256  -15.0588  -98.3696 C   0  0  2  0  0  0  0  0  0  0  0  0
    5.4468  -16.2126  -97.6218 C   0  0  0  0  0  0  0  0  0  0  0  0
    4.6544  -16.5451  -96.3530 C   0  0  0  0  0  0  0  0  0  0  0  0
    4.6606  -15.4199  -95.4830 O   0  0  0  0  0  0  0  0  0  0  0  0
  1 11  1  0  0  0  0
  3 13  1  1  0  0  0
  3 17  2  0  0  0  0
  3 20  1  0  0  0  0
  3 26  1  0  0  0  0
  4 14  1  1  0  0  0
  4 18  1  0  0  0  0
  4 21  2  0  0  0  0
  4 20  1  0  0  0  0
  5 19  1  0  0  0  0
  5  7  1  0  0  0  0
  6  7  2  0  0  0  0
  6 12  1  0  0  0  0
  7  8  1  0  0  0  0
  8  9  1  0  0  0  0
  8 10  2  0  0  0  0
 10 11  1  0  0  0  0
 11 12  2  0  0  0  0
 15 23  1  0  0  0  0
 15 16  1  0  0  0  0
 16 19  1  0  0  0  0
 19 22  1  0  0  0  0
 22  2  1  1  0  0  0
 22 23  1  0  0  0  0
 23 24  1  1  0  0  0
 24 25  1  0  0  0  0
 25 26  1  0  0  0  0
M  CHG  2  13  -1  18  -1
M  END
>  <CHROM.1>
72.21174785,-121.75203121,-106.51135315,-55.04644475,89.13348341,-61.37473682
-165.92090127,85.12871488,2.77431962,-15.11729672,-96.74873974,1.89427521
-0.13380515,-1.16596640

>  <Name>
ligand

>  <RI>
0

>  <Rbt.Current_Directory>
/home/itssahil/PROJECTS/Mol_Feturizer/New_Systems/rnas/2CKY

>  <Rbt.Executable>
rbdock ($Id: //depot/dev/client3/rdock/2013.1/src/exe/rbdock.cxx#4 $)

>  <Rbt.Library>
libRbt.so (2013.1, Build901 2013/11/27)

>  <Rbt.Parameter_File>
/export/apps/rDock/src/rDock_2013.1_src/data/scripts/dock_solv.prm

>  <Rbt.Receptor>
prm/pocket_docking_6.prm

>  <SCORE>
-19.6219

>  <SCORE.INTER>
-14.2118

>  <SCORE.INTER.CONST>
1

>  <SCORE.INTER.POLAR>
0

>  <SCORE.INTER.ROT>
8

>  <SCORE.INTER.SOLV>
13.4395

>  <SCORE.INTER.VDW>
-22.8877

>  <SCORE.INTER.norm>
-0.546607

>  <SCORE.INTRA>
-5.41008

>  <SCORE.INTRA.DIHEDRAL>
-9.39445

>  <SCORE.INTRA.DIHEDRAL.0>
16.4846

>  <SCORE.INTRA.POLAR>
0

>  <SCORE.INTRA.POLAR.0>
0

>  <SCORE.INTRA.REPUL>
0

>  <SCORE.INTRA.REPUL.0>
0

>  <SCORE.INTRA.SOLV>
0.800916

>  <SCORE.INTRA.SOLV.lig_0>
-82.6983

>  <SCORE.INTRA.VDW>
-1.11332

>  <SCORE.INTRA.VDW.0>
-2.11466

>  <SCORE.INTRA.norm>
-0.20808

>  <SCORE.RESTR>
0

>  <SCORE.RESTR.CAVITY>
0

>  <SCORE.RESTR.norm>
0

>  <SCORE.SYSTEM>
0

>  <SCORE.SYSTEM.CONST>
0

>  <SCORE.SYSTEM.DIHEDRAL>
0

>  <SCORE.SYSTEM.SOLV>
0

>  <SCORE.SYSTEM.norm>
0

>  <SCORE.heavy>
26

>  <SCORE.norm>
-0.754687

>  <RMSD>
9.320

$$$$
ligand
 OpenBabel11021811423D
libRbt.so/2013.1/901 2013/11/27
 26 27  0  0  0  0  0  0  0  0999 V2000
   -0.4667  -10.9381  -98.2597 C   0  0  0  0  0  0  0  0  0  0  0  0
   -2.4286  -18.0293  -99.5862 C   0  0  0  0  0  0  0  0  0  0  0  0
   -0.9252  -17.9567  -95.2175 P   0  0  2  0  0  0  0  0  0  0  0  0
   -1.0445  -19.0418  -92.6721 P   0  0  2  0  0  0  0  0  0  0  0  0
   -0.8611  -15.8321 -101.2192 C   0  0  0  0  0  0  0  0  0  0  0  0
    0.2931  -13.7259 -100.5931 C   0  0  0  0  0  0  0  0  0  0  0  0
   -0.7915  -14.5723 -100.4027 C   0  0  0  0  0  0  0  0  0  0  0  0
   -1.7940  -14.1927  -99.5054 C   0  0  0  0  0  0  0  0  0  0  0  0
   -2.8852  -14.9155  -99.2511 N   0  0  0  0  0  0  0  0  0  0  0  0
   -1.6665  -13.0081  -98.8273 N   0  0  0  0  0  0  0  0  0  0  0  0
   -0.5779  -12.2052  -99.0210 C   0  0  0  0  0  0  0  0  0  0  0  0
    0.4041  -12.5413  -99.8970 N   0  0  0  0  0  0  0  0  0  0  0  0
    0.4355  -17.2977  -95.1055 O   0  5  0  0  0  0  0  0  0  0  0  0
   -0.8579  -20.4003  -92.0349 O   0  0  0  0  0  0  0  0  0  0  0  0
    1.4399  -18.6406  -99.7405 S   0  0  0  0  0  0  0  0  0  0  0  0
    1.0360  -17.2953 -100.5672 C   0  0  0  0  0  0  0  0  0  0  0  0
   -1.9546  -16.8642  -94.9406 O   0  0  0  0  0  0  0  0  0  0  0  0
   -2.4266  -18.4810  -92.4060 O   0  5  0  0  0  0  0  0  0  0  0  0
   -0.3148  -17.0031 -100.5760 N   0  0  0  0  0  0  0  0  0  0  0  0
   -0.9123  -19.2469  -94.2474 O   0  0  0  0  0  0  0  0  0  0  0  0
    0.0222  -18.1126  -92.1293 O   0  0  0  0  0  0  0  0  0  0  0  0
   -0.9769  -17.9625  -99.8501 C   0  0  1  0  0  0  0  0  0  0  0  0
   -0.0815  -18.9157  -99.3401 C   0  0  2  0  0  0  0  0  0  0  0  0
   -0.2135  -20.1513  -98.4843 C   0  0  0  0  0  0  0  0  0  0  0  0
   -0.0358  -19.8212  -96.9984 C   0  0  0  0  0  0  0  0  0  0  0  0
   -0.9732  -18.8204  -96.6207 O   0  0  0  0  0  0  0  0  0  0  0  0
  1 11  1  0  0  0  0
  3 13  1  1  0  0  0
  3 17  2  0  0  0  0
  3 20  1  0  0  0  0
  3 26  1  0  0  0  0
  4 14  1  1  0  0  0
  4 18  1  0  0  0  0
  4 21  2  0  0  0  0
  4 20  1  0  0  0  0
  5 19  1  0  0  0  0
  5  7  1  0  0  0  0
  6  7  2  0  0  0  0
  6 12  1  0  0  0  0
  7  8  1  0  0  0  0
  8  9  1  0  0  0  0
  8 10  2  0  0  0  0
 10 11  1  0  0  0  0
 11 12  2  0  0  0  0
 15 23  1  0  0  0  0
 15 16  1  0  0  0  0
 16 19  1  0  0  0  0
 19 22  1  0  0  0  0
 22  2  1  1  0  0  0
 22 23  1  0  0  0  0
 23 24  1  1  0  0  0
 24 25  1  0  0  0  0
 25 26  1  0  0  0  0
M  CHG  2  13  -1  18  -1
M  END
>  <CHROM.1>
76.12534226,-82.43121789,94.39568389,-174.30790894,87.50535243,56.19884933
-166.58696731,54.68070012,-0.66434624,-17.07547706,-97.19968353,1.34867250
1.33458756,-0.75577190

>  <Name>
ligand

>  <RI>
0

>  <Rbt.Current_Directory>
/home/itssahil/PROJECTS/Mol_Feturizer/New_Systems/rnas/2CKY

>  <Rbt.Executable>
rbdock ($Id: //depot/dev/client3/rdock/2013.1/src/exe/rbdock.cxx#4 $)

>  <Rbt.Library>
libRbt.so (2013.1, Build901 2013/11/27)

>  <Rbt.Parameter_File>
/export/apps/rDock/src/rDock_2013.1_src/data/scripts/dock_solv.prm

>  <Rbt.Receptor>
prm/pocket_docking_7.prm

>  <SCORE>
-14.6867

>  <SCORE.INTER>
-9.69184

>  <SCORE.INTER.CONST>
1

>  <SCORE.INTER.POLAR>
0

>  <SCORE.INTER.ROT>
8

>  <SCORE.INTER.SOLV>
17.8016

>  <SCORE.INTER.VDW>
-21.3284

>  <SCORE.INTER.norm>
-0.372763

>  <SCORE.INTRA>
-4.99481

>  <SCORE.INTRA.DIHEDRAL>
-10.2963

>  <SCORE.INTRA.DIHEDRAL.0>
16.4846

>  <SCORE.INTRA.POLAR>
0

>  <SCORE.INTRA.POLAR.0>
0

>  <SCORE.INTRA.REPUL>
0

>  <SCORE.INTRA.REPUL.0>
0

>  <SCORE.INTRA.SOLV>
4.23499

>  <SCORE.INTRA.SOLV.lig_0>
-82.6983

>  <SCORE.INTRA.VDW>
-1.96416

>  <SCORE.INTRA.VDW.0>
-2.11466

>  <SCORE.INTRA.norm>
-0.192108

>  <SCORE.RESTR>
0

>  <SCORE.RESTR.CAVITY>
0

>  <SCORE.RESTR.norm>
0

>  <SCORE.SYSTEM>
0

>  <SCORE.SYSTEM.CONST>
0

>  <SCORE.SYSTEM.DIHEDRAL>
0

>  <SCORE.SYSTEM.SOLV>
0

>  <SCORE.SYSTEM.norm>
0

>  <SCORE.heavy>
26

>  <SCORE.norm>
-0.564871

>  <RMSD>
9.349

$$$$
ligand
 OpenBabel11021811423D
libRbt.so/2013.1/901 2013/11/27
 26 27  0  0  0  0  0  0  0  0999 V2000
   -2.8860  -14.3112  -99.7796 C   0  0  0  0  0  0  0  0  0  0  0  0
    2.5716  -13.3104  -96.7449 C   0  0  0  0  0  0  0  0  0  0  0  0
    4.3919  -15.8242  -91.4687 P   0  0  2  0  0  0  0  0  0  0  0  0
    2.2868  -17.4481  -90.6928 P   0  0  2  0  0  0  0  0  0  0  0  0
    2.8338  -14.6477  -99.5899 C   0  0  0  0  0  0  0  0  0  0  0  0
    0.7086  -13.3775  -99.7650 C   0  0  0  0  0  0  0  0  0  0  0  0
    1.3315  -14.6092  -99.6105 C   0  0  0  0  0  0  0  0  0  0  0  0
    0.5414  -15.7601  -99.5360 C   0  0  0  0  0  0  0  0  0  0  0  0
    1.0264  -16.9947  -99.4010 N   0  0  0  0  0  0  0  0  0  0  0  0
   -0.8225  -15.6361  -99.5979 N   0  0  0  0  0  0  0  0  0  0  0  0
   -1.4076  -14.4084  -99.7305 C   0  0  0  0  0  0  0  0  0  0  0  0
   -0.6649  -13.2748  -99.8199 N   0  0  0  0  0  0  0  0  0  0  0  0
    5.7236  -16.0012  -92.1711 O   0  5  0  0  0  0  0  0  0  0  0  0
    1.3763  -16.2872  -91.0245 O   0  0  0  0  0  0  0  0  0  0  0  0
    4.8091  -16.5285  -96.7740 S   0  0  0  0  0  0  0  0  0  0  0  0
    4.2232  -16.2209  -98.2634 C   0  0  0  0  0  0  0  0  0  0  0  0
    4.7070  -15.2456  -90.0918 O   0  0  0  0  0  0  0  0  0  0  0  0
    2.6745  -17.4579  -89.2282 O   0  5  0  0  0  0  0  0  0  0  0  0
    3.4122  -15.1050  -98.3491 N   0  0  0  0  0  0  0  0  0  0  0  0
    3.6245  -17.2429  -91.5351 O   0  0  0  0  0  0  0  0  0  0  0  0
    1.5732  -18.7320  -91.0647 O   0  0  0  0  0  0  0  0  0  0  0  0
    3.3215  -14.5309  -97.1050 C   0  0  1  0  0  0  0  0  0  0  0  0
    4.0713  -15.2511  -96.1619 C   0  0  2  0  0  0  0  0  0  0  0  0
    4.3583  -15.0999  -94.6883 C   0  0  0  0  0  0  0  0  0  0  0  0
    3.1175  -15.4110  -93.8445 C   0  0  0  0  0  0  0  0  0  0  0  0
    3.3612  -15.0444  -92.4920 O   0  0  0  0  0  0  0  0  0  0  0  0
  1 11  1  0  0  0  0
  3 13  1  6  0  0  0
  3 17  2  0  0  0  0
  3 20  1  0  0  0  0
  3 26  1  0  0  0  0
  4 14  1  6  0  0  0
  4 18  1  0  0  0  0
  4 21  2  0  0  0  0
  4 20  1  0  0  0  0
  5 19  1  0  0  0  0
  5  7  1  0  0  0  0
  6  7  2  0  0  0  0
  6 12  1  0  0  0  0
  7  8  1  0  0  0  0
  8  9  1  0  0  0  0
  8 10  2  0  0  0  0
 10 11  1  0  0  0  0
 11 12  2  0  0  0  0
 15 23  1  0  0  0  0
 15 16  1  0  0  0  0
 16 19  1  0  0  0  0
 19 22  1  0  0  0  0
 22  2  1  6  0  0  0
 22 23  1  0  0  0  0
 23 24  1  6  0  0  0
 24 25  1  0  0  0  0
 25 26  1  0  0  0  0
M  CHG  2  13  -1  18  -1
M  END
>  <CHROM.1>
170.83702066,119.87982283,116.56850030,51.25707529,-109.50387642,-170.37067930
-70.32065079,49.62132101,2.54511111,-15.71019061,-95.14468329,1.88969033
-0.07018068,-1.32562194

>  <Name>
ligand

>  <RI>
0

>  <Rbt.Current_Directory>
/home/itssahil/PROJECTS/Mol_Feturizer/New_Systems/rnas/2CKY

>  <Rbt.Executable>
rbdock ($Id: //depot/dev/client3/rdock/2013.1/src/exe/rbdock.cxx#4 $)

>  <Rbt.Library>
libRbt.so (2013.1, Build901 2013/11/27)

>  <Rbt.Parameter_File>
/export/apps/rDock/src/rDock_2013.1_src/data/scripts/dock_solv.prm

>  <Rbt.Receptor>
prm/pocket_docking_6.prm

>  <SCORE>
-12.622

>  <SCORE.INTER>
-6.11932

>  <SCORE.INTER.CONST>
1

>  <SCORE.INTER.POLAR>
0

>  <SCORE.INTER.ROT>
8

>  <SCORE.INTER.SOLV>
17.7525

>  <SCORE.INTER.VDW>
-18.9304

>  <SCORE.INTER.norm>
-0.235359

>  <SCORE.INTRA>
-6.5027

>  <SCORE.INTRA.DIHEDRAL>
-10.4925

>  <SCORE.INTRA.DIHEDRAL.0>
16.4846

>  <SCORE.INTRA.POLAR>
0

>  <SCORE.INTRA.POLAR.0>
0

>  <SCORE.INTRA.REPUL>
0

>  <SCORE.INTRA.REPUL.0>
0

>  <SCORE.INTRA.SOLV>
1.20049

>  <SCORE.INTRA.SOLV.lig_0>
-82.6983

>  <SCORE.INTRA.VDW>
-1.8567

>  <SCORE.INTRA.VDW.0>
-2.11466

>  <SCORE.INTRA.norm>
-0.250104

>  <SCORE.RESTR>
0

>  <SCORE.RESTR.CAVITY>
0

>  <SCORE.RESTR.norm>
0

>  <SCORE.SYSTEM>
0

>  <SCORE.SYSTEM.CONST>
0

>  <SCORE.SYSTEM.DIHEDRAL>
0

>  <SCORE.SYSTEM.SOLV>
0

>  <SCORE.SYSTEM.norm>
0

>  <SCORE.heavy>
26

>  <SCORE.norm>
-0.485462

>  <RMSD>
9.386

$$$$
ligand
 OpenBabel11021811423D
libRbt.so/2013.1/901 2013/11/27
 26 27  0  0  0  0  0  0  0  0999 V2000
    4.1478  -10.8286 -100.3638 C   0  0  0  0  0  0  0  0  0  0  0  0
   -0.8587  -11.6264  -95.1263 C   0  0  0  0  0  0  0  0  0  0  0  0
   -1.0383  -17.5572  -94.2641 P   0  0  2  0  0  0  0  0  0  0  0  0
    1.5332  -17.5138  -93.2365 P   0  0  2  0  0  0  0  0  0  0  0  0
   -0.8982   -9.9402  -97.7921 C   0  0  0  0  0  0  0  0  0  0  0  0
    0.5558  -11.0753  -99.4528 C   0  0  0  0  0  0  0  0  0  0  0  0
    0.4511  -10.1541  -98.4186 C   0  0  0  0  0  0  0  0  0  0  0  0
    1.5861   -9.4296  -98.0430 C   0  0  0  0  0  0  0  0  0  0  0  0
    1.6034   -8.5120  -97.0759 N   0  0  0  0  0  0  0  0  0  0  0  0
    2.7704   -9.6642  -98.6926 N   0  0  0  0  0  0  0  0  0  0  0  0
    2.8471  -10.5912  -99.6935 C   0  0  0  0  0  0  0  0  0  0  0  0
    1.7578  -11.2993 -100.0893 N   0  0  0  0  0  0  0  0  0  0  0  0
   -1.6465  -18.2910  -93.0852 O   0  5  0  0  0  0  0  0  0  0  0  0
    1.9874  -18.3533  -94.4094 O   0  0  0  0  0  0  0  0  0  0  0  0
   -3.1525  -13.1450  -97.9184 S   0  0  0  0  0  0  0  0  0  0  0  0
   -2.4570  -11.7636  -98.4325 C   0  0  0  0  0  0  0  0  0  0  0  0
   -0.7869  -18.6096  -95.3406 O   0  0  0  0  0  0  0  0  0  0  0  0
    1.1378  -18.3709  -92.0513 O   0  5  0  0  0  0  0  0  0  0  0  0
   -1.6339  -11.1490  -97.5079 N   0  0  0  0  0  0  0  0  0  0  0  0
    0.2293  -16.7269  -93.7075 O   0  0  0  0  0  0  0  0  0  0  0  0
    2.6600  -16.5725  -92.8622 O   0  0  0  0  0  0  0  0  0  0  0  0
   -1.6201  -11.9042  -96.3611 C   0  0  1  0  0  0  0  0  0  0  0  0
   -2.4335  -13.0403  -96.4961 C   0  0  2  0  0  0  0  0  0  0  0  0
   -2.7892  -14.2078  -95.6092 C   0  0  0  0  0  0  0  0  0  0  0  0
   -1.6441  -15.2238  -95.5398 C   0  0  0  0  0  0  0  0  0  0  0  0
   -1.9615  -16.2298  -94.5858 O   0  0  0  0  0  0  0  0  0  0  0  0
  1 11  1  0  0  0  0
  3 13  1  1  0  0  0
  3 17  2  0  0  0  0
  3 20  1  0  0  0  0
  3 26  1  0  0  0  0
  4 14  1  6  0  0  0
  4 18  1  0  0  0  0
  4 21  2  0  0  0  0
  4 20  1  0  0  0  0
  5 19  1  0  0  0  0
  5  7  1  0  0  0  0
  6  7  2  0  0  0  0
  6 12  1  0  0  0  0
  7  8  1  0  0  0  0
  8  9  1  0  0  0  0
  8 10  2  0  0  0  0
 10 11  1  0  0  0  0
 11 12  2  0  0  0  0
 15 23  1  0  0  0  0
 15 16  1  0  0  0  0
 16 19  1  0  0  0  0
 19 22  1  0  0  0  0
 22  2  1  6  0  0  0
 22 23  1  0  0  0  0
 23 24  1  6  0  0  0
 24 25  1  0  0  0  0
 25 26  1  0  0  0  0
M  CHG  2  13  -1  18  -1
M  END
>  <CHROM.1>
69.93747479,-87.26479323,44.62890438,56.56343893,103.34220626,173.77438902
176.39123139,173.81720882,-0.08372547,-14.04242371,-96.10186674,-1.49374984
0.01990012,2.53860585

>  <Name>
ligand

>  <RI>
0

>  <Rbt.Current_Directory>
/home/itssahil/PROJECTS/Mol_Feturizer/New_Systems/rnas/2CKY

>  <Rbt.Executable>
rbdock ($Id: //depot/dev/client3/rdock/2013.1/src/exe/rbdock.cxx#4 $)

>  <Rbt.Library>
libRbt.so (2013.1, Build901 2013/11/27)

>  <Rbt.Parameter_File>
/export/apps/rDock/src/rDock_2013.1_src/data/scripts/dock_solv.prm

>  <Rbt.Receptor>
prm/pocket_docking_8.prm

>  <SCORE>
-19.3368

>  <SCORE.INTER>
-12.2931

>  <SCORE.INTER.CONST>
1

>  <SCORE.INTER.POLAR>
0

>  <SCORE.INTER.ROT>
8

>  <SCORE.INTER.SOLV>
9.53158

>  <SCORE.INTER.VDW>
-20.3059

>  <SCORE.INTER.norm>
-0.47281

>  <SCORE.INTRA>
-7.04375

>  <SCORE.INTRA.DIHEDRAL>
-11.6352

>  <SCORE.INTRA.DIHEDRAL.0>
16.4846

>  <SCORE.INTRA.POLAR>
0

>  <SCORE.INTRA.POLAR.0>
0

>  <SCORE.INTRA.REPUL>
0

>  <SCORE.INTRA.REPUL.0>
0

>  <SCORE.INTRA.SOLV>
0.415027

>  <SCORE.INTRA.SOLV.lig_0>
-82.6983

>  <SCORE.INTRA.VDW>
-1.43367

>  <SCORE.INTRA.VDW.0>
-2.11466

>  <SCORE.INTRA.norm>
-0.270913

>  <SCORE.RESTR>
0

>  <SCORE.RESTR.CAVITY>
0

>  <SCORE.RESTR.norm>
0

>  <SCORE.SYSTEM>
0

>  <SCORE.SYSTEM.CONST>
0

>  <SCORE.SYSTEM.DIHEDRAL>
0

>  <SCORE.SYSTEM.SOLV>
0

>  <SCORE.SYSTEM.norm>
0

>  <SCORE.heavy>
26

>  <SCORE.norm>
-0.743723

>  <RMSD>
9.423

$$$$
ligand
 OpenBabel11021811423D
libRbt.so/2013.1/901 2013/11/27
 26 27  0  0  0  0  0  0  0  0999 V2000
    1.9457  -22.3442 -101.7919 C   0  0  0  0  0  0  0  0  0  0  0  0
    1.3251  -17.7296  -97.3942 C   0  0  0  0  0  0  0  0  0  0  0  0
    0.4612  -16.0915  -92.1787 P   0  0  2  0  0  0  0  0  0  0  0  0
    1.5727  -17.6899  -90.2089 P   0  0  2  0  0  0  0  0  0  0  0  0
    2.9400  -16.9898 -100.0011 C   0  0  0  0  0  0  0  0  0  0  0  0
    3.6887  -19.2325 -100.7564 C   0  0  0  0  0  0  0  0  0  0  0  0
    2.6280  -18.3762 -100.4905 C   0  0  0  0  0  0  0  0  0  0  0  0
    1.3224  -18.8542 -100.6358 C   0  0  0  0  0  0  0  0  0  0  0  0
    0.2283  -18.1303 -100.3974 N   0  0  0  0  0  0  0  0  0  0  0  0
    1.1291  -20.1452 -101.0545 N   0  0  0  0  0  0  0  0  0  0  0  0
    2.1928  -20.9583 -101.3275 C   0  0  0  0  0  0  0  0  0  0  0  0
    3.4720  -20.5257 -101.1813 N   0  0  0  0  0  0  0  0  0  0  0  0
    0.2269  -14.6120  -92.4119 O   0  5  0  0  0  0  0  0  0  0  0  0
    1.9142  -17.5508  -88.7424 O   0  0  0  0  0  0  0  0  0  0  0  0
    4.9476  -16.4121  -96.6839 S   0  0  0  0  0  0  0  0  0  0  0  0
    4.6545  -16.4556  -98.2865 C   0  0  0  0  0  0  0  0  0  0  0  0
   -0.8805  -16.7802  -92.4142 O   0  0  0  0  0  0  0  0  0  0  0  0
    2.7727  -18.1214  -91.0271 O   0  5  0  0  0  0  0  0  0  0  0  0
    3.3993  -16.9176  -98.6347 N   0  0  0  0  0  0  0  0  0  0  0  0
    1.1442  -16.2434  -90.7239 O   0  0  0  0  0  0  0  0  0  0  0  0
    0.4472  -18.6957  -90.3407 O   0  0  0  0  0  0  0  0  0  0  0  0
    2.7088  -17.2214  -97.4873 C   0  0  1  0  0  0  0  0  0  0  0  0
    3.4884  -16.9676  -96.3479 C   0  0  2  0  0  0  0  0  0  0  0  0
    3.2713  -17.0875  -94.8596 C   0  0  0  0  0  0  0  0  0  0  0  0
    1.9696  -16.4026  -94.4297 C   0  0  0  0  0  0  0  0  0  0  0  0
    1.8002  -16.5480  -93.0250 O   0  0  0  0  0  0  0  0  0  0  0  0
  1 11  1  0  0  0  0
  3 13  1  6  0  0  0
  3 17  2  0  0  0  0
  3 20  1  0  0  0  0
  3 26  1  0  0  0  0
  4 14  1  1  0  0  0
  4 18  1  0  0  0  0
  4 21  2  0  0  0  0
  4 20  1  0  0  0  0
  5 19  1  0  0  0  0
  5  7  1  0  0  0  0
  6  7  2  0  0  0  0
  6 12  1  0  0  0  0
  7  8  1  0  0  0  0
  8  9  1  0  0  0  0
  8 10  2  0  0  0  0
 10 11  1  0  0  0  0
 11 12  2  0  0  0  0
 15 23  1  0  0  0  0
 15 16  1  0  0  0  0
 16 19  1  0  0  0  0
 19 22  1  0  0  0  0
 22  2  1  1  0  0  0
 22 23  1  0  0  0  0
 23 24  1  1  0  0  0
 24 25  1  0  0  0  0
 25 26  1  0  0  0  0
M  CHG  2  13  -1  18  -1
M  END
>  <CHROM.1>
-177.48440765,117.38007817,-73.31159007,-168.91995704,129.08044478,179.57554318
-173.53832315,-57.59773068,2.07533107,-17.64130270,-95.61605306,1.38320736
-0.74503146,-1.93281103

>  <Name>
ligand

>  <RI>
0

>  <Rbt.Current_Directory>
/home/itssahil/PROJECTS/Mol_Feturizer/New_Systems/rnas/2CKY

>  <Rbt.Executable>
rbdock ($Id: //depot/dev/client3/rdock/2013.1/src/exe/rbdock.cxx#4 $)

>  <Rbt.Library>
libRbt.so (2013.1, Build901 2013/11/27)

>  <Rbt.Parameter_File>
/export/apps/rDock/src/rDock_2013.1_src/data/scripts/dock_solv.prm

>  <Rbt.Receptor>
prm/pocket_docking_8.prm

>  <SCORE>
-20.0534

>  <SCORE.INTER>
-14.3931

>  <SCORE.INTER.CONST>
1

>  <SCORE.INTER.POLAR>
0

>  <SCORE.INTER.ROT>
8

>  <SCORE.INTER.SOLV>
17.6859

>  <SCORE.INTER.VDW>
-24.4241

>  <SCORE.INTER.norm>
-0.553582

>  <SCORE.INTRA>
-5.66022

>  <SCORE.INTRA.DIHEDRAL>
-11.4325

>  <SCORE.INTRA.DIHEDRAL.0>
16.4846

>  <SCORE.INTRA.POLAR>
0

>  <SCORE.INTRA.POLAR.0>
0

>  <SCORE.INTRA.REPUL>
0

>  <SCORE.INTRA.REPUL.0>
0

>  <SCORE.INTRA.SOLV>
3.08859

>  <SCORE.INTRA.SOLV.lig_0>
-82.6983

>  <SCORE.INTRA.VDW>
-1.48825

>  <SCORE.INTRA.VDW.0>
-2.11466

>  <SCORE.INTRA.norm>
-0.217701

>  <SCORE.RESTR>
0

>  <SCORE.RESTR.CAVITY>
0

>  <SCORE.RESTR.norm>
0

>  <SCORE.SYSTEM>
0

>  <SCORE.SYSTEM.CONST>
0

>  <SCORE.SYSTEM.DIHEDRAL>
0

>  <SCORE.SYSTEM.SOLV>
0

>  <SCORE.SYSTEM.norm>
0

>  <SCORE.heavy>
26

>  <SCORE.norm>
-0.771283

>  <RMSD>
9.451

$$$$
ligand
 OpenBabel11021811423D
libRbt.so/2013.1/901 2013/11/27
 26 27  0  0  0  0  0  0  0  0999 V2000
    1.6618  -13.0041 -100.2469 C   0  0  0  0  0  0  0  0  0  0  0  0
    0.5376  -15.2726  -93.7000 C   0  0  0  0  0  0  0  0  0  0  0  0
    0.5116  -17.3352  -90.3308 P   0  0  2  0  0  0  0  0  0  0  0  0
   -0.0386  -19.0557  -88.2314 P   0  0  2  0  0  0  0  0  0  0  0  0
   -1.1804  -15.9740  -96.2510 C   0  0  0  0  0  0  0  0  0  0  0  0
    0.6817  -14.5127  -96.9978 C   0  0  0  0  0  0  0  0  0  0  0  0
   -0.4844  -15.1907  -97.3285 C   0  0  0  0  0  0  0  0  0  0  0  0
   -0.9292  -15.1613  -98.6535 C   0  0  0  0  0  0  0  0  0  0  0  0
   -2.0246  -15.7833  -99.0903 N   0  0  0  0  0  0  0  0  0  0  0  0
   -0.2128  -14.4491  -99.5802 N   0  0  0  0  0  0  0  0  0  0  0  0
    0.9205  -13.7756  -99.2208 C   0  0  0  0  0  0  0  0  0  0  0  0
    1.3843  -13.7983  -97.9444 N   0  0  0  0  0  0  0  0  0  0  0  0
    1.8429  -17.1381  -89.6332 O   0  5  0  0  0  0  0  0  0  0  0  0
   -0.0398  -20.3526  -89.0090 O   0  0  0  0  0  0  0  0  0  0  0  0
    0.9207  -18.9889  -94.8855 S   0  0  0  0  0  0  0  0  0  0  0  0
   -0.1204  -18.1824  -95.8457 C   0  0  0  0  0  0  0  0  0  0  0  0
    0.1754  -16.0034  -90.9967 O   0  0  0  0  0  0  0  0  0  0  0  0
   -1.0231  -19.0895  -87.0802 O   0  5  0  0  0  0  0  0  0  0  0  0
   -0.3264  -16.8608  -95.4976 N   0  0  0  0  0  0  0  0  0  0  0  0
   -0.5215  -17.9142  -89.2338 O   0  0  0  0  0  0  0  0  0  0  0  0
    1.3675  -18.8080  -87.7241 O   0  0  0  0  0  0  0  0  0  0  0  0
    0.4389  -16.5723  -94.3947 C   0  0  1  0  0  0  0  0  0  0  0  0
    1.1735  -17.6955  -93.9832 C   0  0  2  0  0  0  0  0  0  0  0  0
    2.1659  -17.9749  -92.8816 C   0  0  0  0  0  0  0  0  0  0  0  0
    1.7028  -19.1369  -91.9963 C   0  0  0  0  0  0  0  0  0  0  0  0
    0.5869  -18.7227  -91.2177 O   0  0  0  0  0  0  0  0  0  0  0  0
  1 11  1  0  0  0  0
  3 13  1  1  0  0  0
  3 17  2  0  0  0  0
  3 20  1  0  0  0  0
  3 26  1  0  0  0  0
  4 14  1  6  0  0  0
  4 18  1  0  0  0  0
  4 21  2  0  0  0  0
  4 20  1  0  0  0  0
  5 19  1  0  0  0  0
  5  7  1  0  0  0  0
  6  7  2  0  0  0  0
  6 12  1  0  0  0  0
  7  8  1  0  0  0  0
  8  9  1  0  0  0  0
  8 10  2  0  0  0  0
 10 11  1  0  0  0  0
 11 12  2  0  0  0  0
 15 23  1  0  0  0  0
 15 16  1  0  0  0  0
 16 19  1  0  0  0  0
 19 22  1  0  0  0  0
 22  2  1  6  0  0  0
 22 23  1  0  0  0  0
 23 24  1  6  0  0  0
 24 25  1  0  0  0  0
 25 26  1  0  0  0  0
M  CHG  2  13  -1  18  -1
M  END
>  <CHROM.1>
-43.14389128,-91.50375544,-49.45622958,-77.26609776,-57.26188742,-70.64958406
-49.09854153,-41.43036945,0.37494497,-17.07391134,-93.35579072,-1.64312339
1.36148823,2.02896711

>  <Name>
ligand

>  <RI>
0

>  <Rbt.Current_Directory>
/home/itssahil/PROJECTS/Mol_Feturizer/New_Systems/rnas/2CKY

>  <Rbt.Executable>
rbdock ($Id: //depot/dev/client3/rdock/2013.1/src/exe/rbdock.cxx#4 $)

>  <Rbt.Library>
libRbt.so (2013.1, Build901 2013/11/27)

>  <Rbt.Parameter_File>
/export/apps/rDock/src/rDock_2013.1_src/data/scripts/dock_solv.prm

>  <Rbt.Receptor>
prm/pocket_docking_2.prm

>  <SCORE>
-5.56773

>  <SCORE.INTER>
-3.32455

>  <SCORE.INTER.CONST>
1

>  <SCORE.INTER.POLAR>
0

>  <SCORE.INTER.ROT>
8

>  <SCORE.INTER.SOLV>
25.0698

>  <SCORE.INTER.VDW>
-19.5063

>  <SCORE.INTER.norm>
-0.127867

>  <SCORE.INTRA>
-2.53274

>  <SCORE.INTRA.DIHEDRAL>
-8.78968

>  <SCORE.INTRA.DIHEDRAL.0>
16.4846

>  <SCORE.INTRA.POLAR>
0

>  <SCORE.INTRA.POLAR.0>
0

>  <SCORE.INTRA.REPUL>
0

>  <SCORE.INTRA.REPUL.0>
0

>  <SCORE.INTRA.SOLV>
3.58873

>  <SCORE.INTRA.SOLV.lig_0>
-82.6983

>  <SCORE.INTRA.VDW>
0.067732

>  <SCORE.INTRA.VDW.0>
-2.11466

>  <SCORE.INTRA.norm>
-0.0974132

>  <SCORE.RESTR>
0.289567

>  <SCORE.RESTR.CAVITY>
0.289567

>  <SCORE.RESTR.norm>
0.0111372

>  <SCORE.SYSTEM>
0

>  <SCORE.SYSTEM.CONST>
0

>  <SCORE.SYSTEM.DIHEDRAL>
0

>  <SCORE.SYSTEM.SOLV>
0

>  <SCORE.SYSTEM.norm>
0

>  <SCORE.heavy>
26

>  <SCORE.norm>
-0.214143

>  <RMSD>
9.493

$$$$
ligand
 OpenBabel11021811423D
libRbt.so/2013.1/901 2013/11/27
 26 27  0  0  0  0  0  0  0  0999 V2000
   -0.1736  -11.7168  -98.5944 C   0  0  0  0  0  0  0  0  0  0  0  0
    3.3203  -17.1998  -94.9204 C   0  0  0  0  0  0  0  0  0  0  0  0
    0.3722  -18.1470  -89.8800 P   0  0  2  0  0  0  0  0  0  0  0  0
    0.0821  -19.2663  -87.3634 P   0  0  2  0  0  0  0  0  0  0  0  0
    2.3417  -16.8207  -97.8953 C   0  0  0  0  0  0  0  0  0  0  0  0
    1.8938  -14.4763  -97.2144 C   0  0  0  0  0  0  0  0  0  0  0  0
    1.6401  -15.5087  -98.1081 C   0  0  0  0  0  0  0  0  0  0  0  0
    0.7909  -15.2690  -99.1924 C   0  0  0  0  0  0  0  0  0  0  0  0
    0.4847  -16.1768 -100.1196 N   0  0  0  0  0  0  0  0  0  0  0  0
    0.2199  -14.0302  -99.3292 N   0  0  0  0  0  0  0  0  0  0  0  0
    0.4729  -13.0397  -98.4225 C   0  0  0  0  0  0  0  0  0  0  0  0
    1.3050  -13.2395  -97.3678 N   0  0  0  0  0  0  0  0  0  0  0  0
    1.4624  -17.1875  -89.4455 O   0  5  0  0  0  0  0  0  0  0  0  0
    0.3589  -20.5969  -86.7005 O   0  0  0  0  0  0  0  0  0  0  0  0
    0.1981  -19.3823  -95.8431 S   0  0  0  0  0  0  0  0  0  0  0  0
    0.6639  -18.4765  -97.1153 C   0  0  0  0  0  0  0  0  0  0  0  0
   -0.9246  -17.3421  -89.8995 O   0  0  0  0  0  0  0  0  0  0  0  0
   -1.3850  -18.8951  -87.2884 O   0  5  0  0  0  0  0  0  0  0  0  0
    1.7569  -17.6640  -96.8802 N   0  0  0  0  0  0  0  0  0  0  0  0
    0.4502  -19.4316  -88.9055 O   0  0  0  0  0  0  0  0  0  0  0  0
    0.9346  -18.2124  -86.6863 O   0  0  0  0  0  0  0  0  0  0  0  0
    2.1750  -17.8531  -95.5860 C   0  0  1  0  0  0  0  0  0  0  0  0
    1.3701  -18.7973  -94.9294 C   0  0  2  0  0  0  0  0  0  0  0  0
    1.3525  -19.4070  -93.5494 C   0  0  0  0  0  0  0  0  0  0  0  0
    1.2173  -18.3309  -92.4667 C   0  0  0  0  0  0  0  0  0  0  0  0
    0.8858  -18.9455  -91.2277 O   0  0  0  0  0  0  0  0  0  0  0  0
  1 11  1  0  0  0  0
  3 13  1  1  0  0  0
  3 17  2  0  0  0  0
  3 20  1  0  0  0  0
  3 26  1  0  0  0  0
  4 14  1  1  0  0  0
  4 18  1  0  0  0  0
  4 21  2  0  0  0  0
  4 20  1  0  0  0  0
  5 19  1  0  0  0  0
  5  7  1  0  0  0  0
  6  7  2  0  0  0  0
  6 12  1  0  0  0  0
  7  8  1  0  0  0  0
  8  9  1  0  0  0  0
  8 10  2  0  0  0  0
 10 11  1  0  0  0  0
 11 12  2  0  0  0  0
 15 23  1  0  0  0  0
 15 16  1  0  0  0  0
 16 19  1  0  0  0  0
 19 22  1  0  0  0  0
 22  2  1  6  0  0  0
 22 23  1  0  0  0  0
 23 24  1  6  0  0  0
 24 25  1  0  0  0  0
 25 26  1  0  0  0  0
M  CHG  2  13  -1  18  -1
M  END
>  <CHROM.1>
67.24734576,81.77373498,79.70117381,-175.39533086,-122.32463113,166.21738528
-167.77182748,-61.19274673,0.77960888,-17.42520552,-93.39999235,1.19484617
1.37344727,-0.84439021

>  <Name>
ligand

>  <RI>
0

>  <Rbt.Current_Directory>
/home/itssahil/PROJECTS/Mol_Feturizer/New_Systems/rnas/2CKY

>  <Rbt.Executable>
rbdock ($Id: //depot/dev/client3/rdock/2013.1/src/exe/rbdock.cxx#4 $)

>  <Rbt.Library>
libRbt.so (2013.1, Build901 2013/11/27)

>  <Rbt.Parameter_File>
/export/apps/rDock/src/rDock_2013.1_src/data/scripts/dock_solv.prm

>  <Rbt.Receptor>
prm/pocket_docking_6.prm

>  <SCORE>
-16.1727

>  <SCORE.INTER>
-10.8762

>  <SCORE.INTER.CONST>
1

>  <SCORE.INTER.POLAR>
0

>  <SCORE.INTER.ROT>
8

>  <SCORE.INTER.SOLV>
29.4486

>  <SCORE.INTER.VDW>
-26.0004

>  <SCORE.INTER.norm>
-0.418317

>  <SCORE.INTRA>
-5.40451

>  <SCORE.INTRA.DIHEDRAL>
-10.2227

>  <SCORE.INTRA.DIHEDRAL.0>
16.4846

>  <SCORE.INTRA.POLAR>
0

>  <SCORE.INTRA.POLAR.0>
0

>  <SCORE.INTRA.REPUL>
0

>  <SCORE.INTRA.REPUL.0>
0

>  <SCORE.INTRA.SOLV>
2.23973

>  <SCORE.INTRA.SOLV.lig_0>
-82.6983

>  <SCORE.INTRA.VDW>
-1.41305

>  <SCORE.INTRA.VDW.0>
-2.11466

>  <SCORE.INTRA.norm>
-0.207866

>  <SCORE.RESTR>
0.108078

>  <SCORE.RESTR.CAVITY>
0.108078

>  <SCORE.RESTR.norm>
0.00415683

>  <SCORE.SYSTEM>
0

>  <SCORE.SYSTEM.CONST>
0

>  <SCORE.SYSTEM.DIHEDRAL>
0

>  <SCORE.SYSTEM.SOLV>
0

>  <SCORE.SYSTEM.norm>
0

>  <SCORE.heavy>
26

>  <SCORE.norm>
-0.622026

>  <RMSD>
9.786

$$$$
ligand
 OpenBabel11021811423D
libRbt.so/2013.1/901 2013/11/27
 26 27  0  0  0  0  0  0  0  0999 V2000
    1.6129   -8.6576  -99.7326 C   0  0  0  0  0  0  0  0  0  0  0  0
   -2.9585  -15.0119  -96.1269 C   0  0  0  0  0  0  0  0  0  0  0  0
   -2.7009  -20.3137  -98.3626 P   0  0  2  0  0  0  0  0  0  0  0  0
   -3.3494  -22.2697  -96.5122 P   0  0  2  0  0  0  0  0  0  0  0  0
   -2.0947  -12.1299  -97.0751 C   0  0  0  0  0  0  0  0  0  0  0  0
   -1.2707   -9.8849  -97.7396 C   0  0  0  0  0  0  0  0  0  0  0  0
   -1.1098  -11.2627  -97.8079 C   0  0  0  0  0  0  0  0  0  0  0  0
   -0.0143  -11.7803  -98.5052 C   0  0  0  0  0  0  0  0  0  0  0  0
    0.2497  -13.0815  -98.6272 N   0  0  0  0  0  0  0  0  0  0  0  0
    0.8553  -10.9142  -99.1159 N   0  0  0  0  0  0  0  0  0  0  0  0
    0.6600   -9.5634  -99.0479 C   0  0  0  0  0  0  0  0  0  0  0  0
   -0.3871   -9.0319  -98.3654 N   0  0  0  0  0  0  0  0  0  0  0  0
   -2.7358  -21.0924  -99.6627 O   0  5  0  0  0  0  0  0  0  0  0  0
   -2.1480  -21.8641  -95.6884 O   0  0  0  0  0  0  0  0  0  0  0  0
   -3.5831  -14.3537  -99.9400 S   0  0  0  0  0  0  0  0  0  0  0  0
   -2.9437  -13.0360  -99.2252 C   0  0  0  0  0  0  0  0  0  0  0  0
   -1.2399  -20.2808  -97.9217 O   0  0  0  0  0  0  0  0  0  0  0  0
   -3.0126  -23.3767  -97.4904 O   0  5  0  0  0  0  0  0  0  0  0  0
   -2.6965  -13.1719  -97.8723 N   0  0  0  0  0  0  0  0  0  0  0  0
   -3.7755  -20.9947  -97.3689 O   0  0  0  0  0  0  0  0  0  0  0  0
   -4.4473  -22.7100  -95.5653 O   0  0  0  0  0  0  0  0  0  0  0  0
   -3.0666  -14.4354  -97.4825 C   0  0  1  0  0  0  0  0  0  0  0  0
   -3.5681  -15.1709  -98.5679 C   0  0  2  0  0  0  0  0  0  0  0  0
   -4.0960  -16.5722  -98.7528 C   0  0  0  0  0  0  0  0  0  0  0  0
   -2.9793  -17.6116  -98.6086 C   0  0  0  0  0  0  0  0  0  0  0  0
   -3.5481  -18.9146  -98.5688 O   0  0  0  0  0  0  0  0  0  0  0  0
  1 11  1  0  0  0  0
  3 13  1  6  0  0  0
  3 17  2  0  0  0  0
  3 20  1  0  0  0  0
  3 26  1  0  0  0  0
  4 14  1  1  0  0  0
  4 18  1  0  0  0  0
  4 21  2  0  0  0  0
  4 20  1  0  0  0  0
  5 19  1  0  0  0  0
  5  7  1  0  0  0  0
  6  7  2  0  0  0  0
  6 12  1  0  0  0  0
  7  8  1  0  0  0  0
  8  9  1  0  0  0  0
  8 10  2  0  0  0  0
 10 11  1  0  0  0  0
 11 12  2  0  0  0  0
 15 23  1  0  0  0  0
 15 16  1  0  0  0  0
 16 19  1  0  0  0  0
 19 22  1  0  0  0  0
 22  2  1  6  0  0  0
 22 23  1  0  0  0  0
 23 24  1  6  0  0  0
 24 25  1  0  0  0  0
 25 26  1  0  0  0  0
M  CHG  2  13  -1  18  -1
M  END
>  <CHROM.1>
83.86863631,-31.98532131,128.37075481,57.41284945,110.35775537,170.47577439
-177.49556458,-110.64825854,-2.26949747,-16.35823954,-98.06669638,-1.33546956
0.18749588,2.96766161

>  <Name>
ligand

>  <RI>
0

>  <Rbt.Current_Directory>
/home/itssahil/PROJECTS/Mol_Feturizer/New_Systems/rnas/2CKY

>  <Rbt.Executable>
rbdock ($Id: //depot/dev/client3/rdock/2013.1/src/exe/rbdock.cxx#4 $)

>  <Rbt.Library>
libRbt.so (2013.1, Build901 2013/11/27)

>  <Rbt.Parameter_File>
/export/apps/rDock/src/rDock_2013.1_src/data/scripts/dock_solv.prm

>  <Rbt.Receptor>
prm/pocket_docking_8.prm

>  <SCORE>
-23.3433

>  <SCORE.INTER>
-18.5035

>  <SCORE.INTER.CONST>
1

>  <SCORE.INTER.POLAR>
0

>  <SCORE.INTER.ROT>
8

>  <SCORE.INTER.SOLV>
14.4385

>  <SCORE.INTER.VDW>
-26.0818

>  <SCORE.INTER.norm>
-0.711671

>  <SCORE.INTRA>
-4.83986

>  <SCORE.INTRA.DIHEDRAL>
-8.71587

>  <SCORE.INTRA.DIHEDRAL.0>
16.4846

>  <SCORE.INTRA.POLAR>
0

>  <SCORE.INTRA.POLAR.0>
0

>  <SCORE.INTRA.REPUL>
0

>  <SCORE.INTRA.REPUL.0>
0

>  <SCORE.INTRA.SOLV>
2.00667

>  <SCORE.INTRA.SOLV.lig_0>
-82.6983

>  <SCORE.INTRA.VDW>
-1.48526

>  <SCORE.INTRA.VDW.0>
-2.11466

>  <SCORE.INTRA.norm>
-0.186149

>  <SCORE.RESTR>
0

>  <SCORE.RESTR.CAVITY>
0

>  <SCORE.RESTR.norm>
0

>  <SCORE.SYSTEM>
0

>  <SCORE.SYSTEM.CONST>
0

>  <SCORE.SYSTEM.DIHEDRAL>
0

>  <SCORE.SYSTEM.SOLV>
0

>  <SCORE.SYSTEM.norm>
0

>  <SCORE.heavy>
26

>  <SCORE.norm>
-0.89782

>  <RMSD>
9.861

$$$$
ligand
 OpenBabel11021811423D
libRbt.so/2013.1/901 2013/11/27
 26 27  0  0  0  0  0  0  0  0999 V2000
    2.0139  -11.3812  -99.1929 C   0  0  0  0  0  0  0  0  0  0  0  0
    2.1373  -17.7448  -95.2350 C   0  0  0  0  0  0  0  0  0  0  0  0
    0.1875  -18.2292  -89.5710 P   0  0  2  0  0  0  0  0  0  0  0  0
    0.5758  -18.9587  -86.9276 P   0  0  2  0  0  0  0  0  0  0  0  0
    0.3440  -16.6212  -97.5745 C   0  0  0  0  0  0  0  0  0  0  0  0
    2.0799  -14.9025  -98.0141 C   0  0  0  0  0  0  0  0  0  0  0  0
    0.7299  -15.2274  -97.9834 C   0  0  0  0  0  0  0  0  0  0  0  0
   -0.2042  -14.2677  -98.3842 C   0  0  0  0  0  0  0  0  0  0  0  0
   -1.5220  -14.4690  -98.4091 N   0  0  0  0  0  0  0  0  0  0  0  0
    0.2387  -13.0308  -98.7758 N   0  0  0  0  0  0  0  0  0  0  0  0
    1.5725  -12.7338  -98.7768 C   0  0  0  0  0  0  0  0  0  0  0  0
    2.5034  -13.6509  -98.4065 N   0  0  0  0  0  0  0  0  0  0  0  0
   -1.2785  -17.8526  -89.4874 O   0  5  0  0  0  0  0  0  0  0  0  0
    1.9292  -19.4389  -86.4539 O   0  0  0  0  0  0  0  0  0  0  0  0
   -1.4793  -16.7406  -94.1061 S   0  0  0  0  0  0  0  0  0  0  0  0
   -1.2713  -16.4515  -95.6964 C   0  0  0  0  0  0  0  0  0  0  0  0
    0.2329  -19.6602  -90.1004 O   0  0  0  0  0  0  0  0  0  0  0  0
   -0.2613  -20.0937  -87.4816 O   0  5  0  0  0  0  0  0  0  0  0  0
   -0.0176  -16.7677  -96.1848 N   0  0  0  0  0  0  0  0  0  0  0  0
    0.8390  -17.9376  -88.1231 O   0  0  0  0  0  0  0  0  0  0  0  0
   -0.1280  -18.2967  -85.7604 O   0  0  0  0  0  0  0  0  0  0  0  0
    0.7422  -17.2664  -95.1555 C   0  0  1  0  0  0  0  0  0  0  0  0
    0.0112  -17.2947  -93.9574 C   0  0  2  0  0  0  0  0  0  0  0  0
    0.2982  -17.7380  -92.5440 C   0  0  0  0  0  0  0  0  0  0  0  0
    0.7032  -16.5535  -91.6602 C   0  0  0  0  0  0  0  0  0  0  0  0
    0.9940  -17.0197  -90.3484 O   0  0  0  0  0  0  0  0  0  0  0  0
  1 11  1  0  0  0  0
  3 13  1  1  0  0  0
  3 17  2  0  0  0  0
  3 20  1  0  0  0  0
  3 26  1  0  0  0  0
  4 14  1  1  0  0  0
  4 18  1  0  0  0  0
  4 21  2  0  0  0  0
  4 20  1  0  0  0  0
  5 19  1  0  0  0  0
  5  7  1  0  0  0  0
  6  7  2  0  0  0  0
  6 12  1  0  0  0  0
  7  8  1  0  0  0  0
  8  9  1  0  0  0  0
  8 10  2  0  0  0  0
 10 11  1  0  0  0  0
 11 12  2  0  0  0  0
 15 23  1  0  0  0  0
 15 16  1  0  0  0  0
 16 19  1  0  0  0  0
 19 22  1  0  0  0  0
 22  2  1  6  0  0  0
 22 23  1  0  0  0  0
 23 24  1  6  0  0  0
 24 25  1  0  0  0  0
 25 26  1  0  0  0  0
M  CHG  2  13  -1  18  -1
M  END
>  <CHROM.1>
77.01746135,81.53769251,96.45129851,122.03527604,-83.30411149,-178.65459593
-37.01136943,-58.04227629,0.37187597,-16.82095340,-92.94227851,-1.53346073
0.60476225,1.96299860

>  <Name>
ligand

>  <RI>
0

>  <Rbt.Current_Directory>
/home/itssahil/PROJECTS/Mol_Feturizer/New_Systems/rnas/2CKY

>  <Rbt.Executable>
rbdock ($Id: //depot/dev/client3/rdock/2013.1/src/exe/rbdock.cxx#4 $)

>  <Rbt.Library>
libRbt.so (2013.1, Build901 2013/11/27)

>  <Rbt.Parameter_File>
/export/apps/rDock/src/rDock_2013.1_src/data/scripts/dock_solv.prm

>  <Rbt.Receptor>
prm/pocket_docking_2.prm

>  <SCORE>
-3.04902

>  <SCORE.INTER>
-2.37521

>  <SCORE.INTER.CONST>
1

>  <SCORE.INTER.POLAR>
0

>  <SCORE.INTER.ROT>
8

>  <SCORE.INTER.SOLV>
27.5836

>  <SCORE.INTER.VDW>
-19.7113

>  <SCORE.INTER.norm>
-0.0913543

>  <SCORE.INTRA>
-1.30086

>  <SCORE.INTRA.DIHEDRAL>
-6.17148

>  <SCORE.INTRA.DIHEDRAL.0>
16.4846

>  <SCORE.INTRA.POLAR>
0

>  <SCORE.INTRA.POLAR.0>
0

>  <SCORE.INTRA.REPUL>
0

>  <SCORE.INTRA.REPUL.0>
0

>  <SCORE.INTRA.SOLV>
3.89421

>  <SCORE.INTRA.SOLV.lig_0>
-82.6983

>  <SCORE.INTRA.VDW>
-0.16222

>  <SCORE.INTRA.VDW.0>
-2.11466

>  <SCORE.INTRA.norm>
-0.050033

>  <SCORE.RESTR>
0.627053

>  <SCORE.RESTR.CAVITY>
0.627053

>  <SCORE.RESTR.norm>
0.0241174

>  <SCORE.SYSTEM>
0

>  <SCORE.SYSTEM.CONST>
0

>  <SCORE.SYSTEM.DIHEDRAL>
0

>  <SCORE.SYSTEM.SOLV>
0

>  <SCORE.SYSTEM.norm>
0

>  <SCORE.heavy>
26

>  <SCORE.norm>
-0.11727

>  <RMSD>
9.879

$$$$
ligand
 OpenBabel11021811423D
libRbt.so/2013.1/901 2013/11/27
 26 27  0  0  0  0  0  0  0  0999 V2000
    1.6197   -8.5975  -99.6810 C   0  0  0  0  0  0  0  0  0  0  0  0
   -3.0529  -14.9607  -96.2077 C   0  0  0  0  0  0  0  0  0  0  0  0
   -2.7632  -20.2454  -98.3617 P   0  0  2  0  0  0  0  0  0  0  0  0
   -3.5703  -22.2708  -96.6539 P   0  0  2  0  0  0  0  0  0  0  0  0
   -2.1470  -12.0809  -97.1230 C   0  0  0  0  0  0  0  0  0  0  0  0
   -1.3226   -9.8345  -97.7821 C   0  0  0  0  0  0  0  0  0  0  0  0
   -1.1448  -11.2112  -97.8287 C   0  0  0  0  0  0  0  0  0  0  0  0
   -0.0189  -11.7243  -98.4792 C   0  0  0  0  0  0  0  0  0  0  0  0
    0.2632  -13.0238  -98.5767 N   0  0  0  0  0  0  0  0  0  0  0  0
    0.8636  -10.8554  -99.0672 N   0  0  0  0  0  0  0  0  0  0  0  0
    0.6516   -9.5062  -99.0217 C   0  0  0  0  0  0  0  0  0  0  0  0
   -0.4255   -8.9787  -98.3844 N   0  0  0  0  0  0  0  0  0  0  0  0
   -2.6490  -20.9570  -99.6954 O   0  5  0  0  0  0  0  0  0  0  0  0
   -3.0037  -23.3009  -97.6050 O   0  0  0  0  0  0  0  0  0  0  0  0
   -3.5699  -14.2873 -100.0343 S   0  0  0  0  0  0  0  0  0  0  0  0
   -2.9425  -12.9755  -99.2982 C   0  0  0  0  0  0  0  0  0  0  0  0
   -1.3582  -20.2240  -97.7656 O   0  0  0  0  0  0  0  0  0  0  0  0
   -4.8546  -22.7487  -96.0075 O   0  5  0  0  0  0  0  0  0  0  0  0
   -2.7329  -13.1170  -97.9395 N   0  0  0  0  0  0  0  0  0  0  0  0
   -3.9288  -20.9844  -97.5243 O   0  0  0  0  0  0  0  0  0  0  0  0
   -2.5228  -21.9699  -95.6013 O   0  0  0  0  0  0  0  0  0  0  0  0
   -3.1208  -14.3795  -97.5639 C   0  0  1  0  0  0  0  0  0  0  0  0
   -3.5969  -15.1087  -98.6649 C   0  0  2  0  0  0  0  0  0  0  0  0
   -4.1278  -16.5063  -98.8685 C   0  0  0  0  0  0  0  0  0  0  0  0
   -3.0193  -17.5521  -98.7075 C   0  0  0  0  0  0  0  0  0  0  0  0
   -3.6017  -18.8441  -98.5876 O   0  0  0  0  0  0  0  0  0  0  0  0
  1 11  1  0  0  0  0
  3 13  1  6  0  0  0
  3 17  2  0  0  0  0
  3 20  1  0  0  0  0
  3 26  1  0  0  0  0
  4 14  1  6  0  0  0
  4 18  1  0  0  0  0
  4 21  2  0  0  0  0
  4 20  1  0  0  0  0
  5 19  1  0  0  0  0
  5  7  1  0  0  0  0
  6  7  2  0  0  0  0
  6 12  1  0  0  0  0
  7  8  1  0  0  0  0
  8  9  1  0  0  0  0
  8 10  2  0  0  0  0
 10 11  1  0  0  0  0
 11 12  2  0  0  0  0
 15 23  1  0  0  0  0
 15 16  1  0  0  0  0
 16 19  1  0  0  0  0
 19 22  1  0  0  0  0
 22  2  1  6  0  0  0
 22 23  1  0  0  0  0
 23 24  1  6  0  0  0
 24 25  1  0  0  0  0
 25 26  1  0  0  0  0
M  CHG  2  13  -1  18  -1
M  END
>  <CHROM.1>
85.83515041,-31.56362964,126.87303347,-59.16537266,109.93998710,166.21025496
-178.46945587,-100.32488126,-2.34245956,-16.31167684,-98.12122538,-1.32361190
0.16942297,2.97731352

>  <Name>
ligand

>  <RI>
0

>  <Rbt.Current_Directory>
/home/itssahil/PROJECTS/Mol_Feturizer/New_Systems/rnas/2CKY

>  <Rbt.Executable>
rbdock ($Id: //depot/dev/client3/rdock/2013.1/src/exe/rbdock.cxx#4 $)

>  <Rbt.Library>
libRbt.so (2013.1, Build901 2013/11/27)

>  <Rbt.Parameter_File>
/export/apps/rDock/src/rDock_2013.1_src/data/scripts/dock_solv.prm

>  <Rbt.Receptor>
prm/pocket_docking_8.prm

>  <SCORE>
-22.3894

>  <SCORE.INTER>
-17.3056

>  <SCORE.INTER.CONST>
1

>  <SCORE.INTER.POLAR>
0

>  <SCORE.INTER.ROT>
8

>  <SCORE.INTER.SOLV>
17.6449

>  <SCORE.INTER.VDW>
-26.352

>  <SCORE.INTER.norm>
-0.665598

>  <SCORE.INTRA>
-5.08379

>  <SCORE.INTRA.DIHEDRAL>
-8.79647

>  <SCORE.INTRA.DIHEDRAL.0>
16.4846

>  <SCORE.INTRA.POLAR>
0

>  <SCORE.INTRA.POLAR.0>
0

>  <SCORE.INTRA.REPUL>
0

>  <SCORE.INTRA.REPUL.0>
0

>  <SCORE.INTRA.SOLV>
1.67234

>  <SCORE.INTRA.SOLV.lig_0>
-82.6983

>  <SCORE.INTRA.VDW>
-1.52173

>  <SCORE.INTRA.VDW.0>
-2.11466

>  <SCORE.INTRA.norm>
-0.19553

>  <SCORE.RESTR>
0

>  <SCORE.RESTR.CAVITY>
0

>  <SCORE.RESTR.norm>
0

>  <SCORE.SYSTEM>
0

>  <SCORE.SYSTEM.CONST>
0

>  <SCORE.SYSTEM.DIHEDRAL>
0

>  <SCORE.SYSTEM.SOLV>
0

>  <SCORE.SYSTEM.norm>
0

>  <SCORE.heavy>
26

>  <SCORE.norm>
-0.861129

>  <RMSD>
9.901

$$$$
ligand
 OpenBabel11021811423D
libRbt.so/2013.1/901 2013/11/27
 26 27  0  0  0  0  0  0  0  0999 V2000
    1.3382   -6.9097 -100.9434 C   0  0  0  0  0  0  0  0  0  0  0  0
   -2.9332  -12.0825  -97.2170 C   0  0  0  0  0  0  0  0  0  0  0  0
   -3.4818  -18.4052  -99.2654 P   0  0  2  0  0  0  0  0  0  0  0  0
   -1.7356  -19.6583  -97.5187 P   0  0  2  0  0  0  0  0  0  0  0  0
    0.1007  -11.6489  -97.9646 C   0  0  0  0  0  0  0  0  0  0  0  0
   -0.2576   -9.2653  -98.5564 C   0  0  0  0  0  0  0  0  0  0  0  0
    0.4467  -10.4398  -98.7874 C   0  0  0  0  0  0  0  0  0  0  0  0
    1.4782  -10.4333  -99.7309 C   0  0  0  0  0  0  0  0  0  0  0  0
    2.2298  -11.4941 -100.0271 N   0  0  0  0  0  0  0  0  0  0  0  0
    1.7495   -9.2751 -100.4123 N   0  0  0  0  0  0  0  0  0  0  0  0
    1.0261   -8.1399 -100.1774 C   0  0  0  0  0  0  0  0  0  0  0  0
    0.0282   -8.1128  -99.2565 N   0  0  0  0  0  0  0  0  0  0  0  0
   -4.8147  -18.8815  -98.7226 O   0  5  0  0  0  0  0  0  0  0  0  0
   -2.8213  -20.6795  -97.2644 O   0  0  0  0  0  0  0  0  0  0  0  0
   -1.6811  -14.3910 -100.1267 S   0  0  0  0  0  0  0  0  0  0  0  0
   -0.4819  -13.4170  -99.6075 C   0  0  0  0  0  0  0  0  0  0  0  0
   -3.1319  -19.3381 -100.4217 O   0  0  0  0  0  0  0  0  0  0  0  0
   -0.9824  -19.3107  -96.2509 O   0  5  0  0  0  0  0  0  0  0  0  0
   -0.8342  -12.5574  -98.5843 N   0  0  0  0  0  0  0  0  0  0  0  0
   -2.4584  -18.3286  -98.0193 O   0  0  0  0  0  0  0  0  0  0  0  0
   -0.7921  -20.2190  -98.5634 O   0  0  0  0  0  0  0  0  0  0  0  0
   -2.1526  -12.7706  -98.2653 C   0  0  1  0  0  0  0  0  0  0  0  0
   -2.7088  -13.7785  -99.0687 C   0  0  2  0  0  0  0  0  0  0  0  0
   -4.0625  -14.4374  -99.1672 C   0  0  0  0  0  0  0  0  0  0  0  0
   -4.0477  -15.8367  -98.5429 C   0  0  0  0  0  0  0  0  0  0  0  0
   -3.5644  -16.7750  -99.4963 O   0  0  0  0  0  0  0  0  0  0  0  0
  1 11  1  0  0  0  0
  3 13  1  1  0  0  0
  3 17  2  0  0  0  0
  3 20  1  0  0  0  0
  3 26  1  0  0  0  0
  4 14  1  1  0  0  0
  4 18  1  0  0  0  0
  4 21  2  0  0  0  0
  4 20  1  0  0  0  0
  5 19  1  0  0  0  0
  5  7  1  0  0  0  0
  6  7  2  0  0  0  0
  6 12  1  0  0  0  0
  7  8  1  0  0  0  0
  8  9  1  0  0  0  0
  8 10  2  0  0  0  0
 10 11  1  0  0  0  0
 11 12  2  0  0  0  0
 15 23  1  0  0  0  0
 15 16  1  0  0  0  0
 16 19  1  0  0  0  0
 19 22  1  0  0  0  0
 22  2  1  1  0  0  0
 22 23  1  0  0  0  0
 23 24  1  1  0  0  0
 24 25  1  0  0  0  0
 25 26  1  0  0  0  0
M  CHG  2  13  -1  18  -1
M  END
>  <CHROM.1>
81.64904468,75.35340993,95.48948290,-53.17471250,75.31249221,-83.86257549
-175.78927361,48.51482671,-1.52116726,-14.75314252,-98.90527262,-1.24393264
0.10701326,2.97148381

>  <Name>
ligand

>  <RI>
0

>  <Rbt.Current_Directory>
/home/itssahil/PROJECTS/Mol_Feturizer/New_Systems/rnas/2CKY

>  <Rbt.Executable>
rbdock ($Id: //depot/dev/client3/rdock/2013.1/src/exe/rbdock.cxx#4 $)

>  <Rbt.Library>
libRbt.so (2013.1, Build901 2013/11/27)

>  <Rbt.Parameter_File>
/export/apps/rDock/src/rDock_2013.1_src/data/scripts/dock_solv.prm

>  <Rbt.Receptor>
prm/pocket_docking_8.prm

>  <SCORE>
-17.548

>  <SCORE.INTER>
-12.085

>  <SCORE.INTER.CONST>
1

>  <SCORE.INTER.POLAR>
0

>  <SCORE.INTER.ROT>
8

>  <SCORE.INTER.SOLV>
18.7973

>  <SCORE.INTER.VDW>
-23.2558

>  <SCORE.INTER.norm>
-0.464807

>  <SCORE.INTRA>
-5.46299

>  <SCORE.INTRA.DIHEDRAL>
-8.559

>  <SCORE.INTRA.DIHEDRAL.0>
16.4846

>  <SCORE.INTRA.POLAR>
0

>  <SCORE.INTRA.POLAR.0>
0

>  <SCORE.INTRA.REPUL>
0

>  <SCORE.INTRA.REPUL.0>
0

>  <SCORE.INTRA.SOLV>
0.671575

>  <SCORE.INTRA.SOLV.lig_0>
-82.6983

>  <SCORE.INTRA.VDW>
-1.51928

>  <SCORE.INTRA.VDW.0>
-2.11466

>  <SCORE.INTRA.norm>
-0.210115

>  <SCORE.RESTR>
0

>  <SCORE.RESTR.CAVITY>
0

>  <SCORE.RESTR.norm>
0

>  <SCORE.SYSTEM>
0

>  <SCORE.SYSTEM.CONST>
0

>  <SCORE.SYSTEM.DIHEDRAL>
0

>  <SCORE.SYSTEM.SOLV>
0

>  <SCORE.SYSTEM.norm>
0

>  <SCORE.heavy>
26

>  <SCORE.norm>
-0.674921

>  <RMSD>
9.996

$$$$
ligand
 OpenBabel11021811423D
libRbt.so/2013.1/901 2013/11/27
 26 27  0  0  0  0  0  0  0  0999 V2000
    3.0180   -7.1232  -99.4739 C   0  0  0  0  0  0  0  0  0  0  0  0
    3.1521  -15.8498 -100.1174 C   0  0  0  0  0  0  0  0  0  0  0  0
    3.2996  -16.1040  -93.9410 P   0  0  2  0  0  0  0  0  0  0  0  0
    2.1544  -18.3252  -92.7472 P   0  0  2  0  0  0  0  0  0  0  0  0
    3.3474  -12.7368 -100.5895 C   0  0  0  0  0  0  0  0  0  0  0  0
    4.3598  -10.4928 -100.2731 C   0  0  0  0  0  0  0  0  0  0  0  0
    3.2120  -11.2749 -100.2682 C   0  0  0  0  0  0  0  0  0  0  0  0
    1.9799  -10.6630 -100.0200 C   0  0  0  0  0  0  0  0  0  0  0  0
    0.8128  -11.3076 -100.0027 N   0  0  0  0  0  0  0  0  0  0  0  0
    1.9444   -9.3155  -99.7701 N   0  0  0  0  0  0  0  0  0  0  0  0
    3.0930   -8.5754  -99.7622 C   0  0  0  0  0  0  0  0  0  0  0  0
    4.3022   -9.1402 -100.0143 N   0  0  0  0  0  0  0  0  0  0  0  0
    4.1603  -15.7086  -92.7574 O   0  5  0  0  0  0  0  0  0  0  0  0
    0.7792  -17.7298  -92.9496 O   0  0  0  0  0  0  0  0  0  0  0  0
    5.5085  -14.0151  -97.5788 S   0  0  0  0  0  0  0  0  0  0  0  0
    4.8754  -12.9573  -98.6449 C   0  0  0  0  0  0  0  0  0  0  0  0
    2.0545  -15.2232  -93.8787 O   0  0  0  0  0  0  0  0  0  0  0  0
    2.7416  -17.9405  -91.4045 O   0  5  0  0  0  0  0  0  0  0  0  0
    4.0349  -13.5171  -99.5885 N   0  0  0  0  0  0  0  0  0  0  0  0
    3.0981  -17.7041  -93.8719 O   0  0  0  0  0  0  0  0  0  0  0  0
    2.0419  -19.8313  -92.8689 O   0  0  0  0  0  0  0  0  0  0  0  0
    3.9533  -14.8683  -99.3582 C   0  0  1  0  0  0  0  0  0  0  0  0
    4.7371  -15.2395  -98.2544 C   0  0  2  0  0  0  0  0  0  0  0  0
    5.0225  -16.5363  -97.5379 C   0  0  0  0  0  0  0  0  0  0  0  0
    3.9503  -16.8389  -96.4857 C   0  0  0  0  0  0  0  0  0  0  0  0
    4.2461  -16.1269  -95.2906 O   0  0  0  0  0  0  0  0  0  0  0  0
  1 11  1  0  0  0  0
  3 13  1  1  0  0  0
  3 17  2  0  0  0  0
  3 20  1  0  0  0  0
  3 26  1  0  0  0  0
  4 14  1  6  0  0  0
  4 18  1  0  0  0  0
  4 21  2  0  0  0  0
  4 20  1  0  0  0  0
  5 19  1  0  0  0  0
  5  7  1  0  0  0  0
  6  7  2  0  0  0  0
  6 12  1  0  0  0  0
  7  8  1  0  0  0  0
  8  9  1  0  0  0  0
  8 10  2  0  0  0  0
 10 11  1  0  0  0  0
 11 12  2  0  0  0  0
 15 23  1  0  0  0  0
 15 16  1  0  0  0  0
 16 19  1  0  0  0  0
 19 22  1  0  0  0  0
 22  2  1  1  0  0  0
 22 23  1  0  0  0  0
 23 24  1  1  0  0  0
 24 25  1  0  0  0  0
 25 26  1  0  0  0  0
M  CHG  2  13  -1  18  -1
M  END
>  <CHROM.1>
71.93033218,-20.28724173,69.08366644,59.36199012,94.34365085,-82.62761977
176.30979214,158.63860860,3.31676014,-14.46020380,-96.71710765,1.45201920
1.02189641,-0.64652382

>  <Name>
ligand

>  <RI>
0

>  <Rbt.Current_Directory>
/home/itssahil/PROJECTS/Mol_Feturizer/New_Systems/rnas/2CKY

>  <Rbt.Executable>
rbdock ($Id: //depot/dev/client3/rdock/2013.1/src/exe/rbdock.cxx#4 $)

>  <Rbt.Library>
libRbt.so (2013.1, Build901 2013/11/27)

>  <Rbt.Parameter_File>
/export/apps/rDock/src/rDock_2013.1_src/data/scripts/dock_solv.prm

>  <Rbt.Receptor>
prm/pocket_docking_6.prm

>  <SCORE>
-17.3962

>  <SCORE.INTER>
-12.0552

>  <SCORE.INTER.CONST>
1

>  <SCORE.INTER.POLAR>
0

>  <SCORE.INTER.ROT>
8

>  <SCORE.INTER.SOLV>
18.1195

>  <SCORE.INTER.VDW>
-23.0099

>  <SCORE.INTER.norm>
-0.46366

>  <SCORE.INTRA>
-5.62785

>  <SCORE.INTRA.DIHEDRAL>
-9.17587

>  <SCORE.INTRA.DIHEDRAL.0>
16.4846

>  <SCORE.INTRA.POLAR>
0

>  <SCORE.INTRA.POLAR.0>
0

>  <SCORE.INTRA.REPUL>
0

>  <SCORE.INTRA.REPUL.0>
0

>  <SCORE.INTRA.SOLV>
0.0969147

>  <SCORE.INTRA.SOLV.lig_0>
-82.6983

>  <SCORE.INTRA.VDW>
-1.08837

>  <SCORE.INTRA.VDW.0>
-2.11466

>  <SCORE.INTRA.norm>
-0.216456

>  <SCORE.RESTR>
0.286808

>  <SCORE.RESTR.CAVITY>
0.286808

>  <SCORE.RESTR.norm>
0.0110311

>  <SCORE.SYSTEM>
0

>  <SCORE.SYSTEM.CONST>
0

>  <SCORE.SYSTEM.DIHEDRAL>
0

>  <SCORE.SYSTEM.SOLV>
0

>  <SCORE.SYSTEM.norm>
0

>  <SCORE.heavy>
26

>  <SCORE.norm>
-0.669085

>  <RMSD>
10.242

$$$$
ligand
 OpenBabel11021811423D
libRbt.so/2013.1/901 2013/11/27
 26 27  0  0  0  0  0  0  0  0999 V2000
   -0.5608  -29.5605  -78.7016 C   0  0  0  0  0  0  0  0  0  0  0  0
    1.6072  -30.2209  -85.3338 C   0  0  0  0  0  0  0  0  0  0  0  0
    5.5972  -30.4743  -88.0348 P   0  0  2  0  0  0  0  0  0  0  0  0
    6.1807  -31.7762  -85.6610 P   0  0  2  0  0  0  0  0  0  0  0  0
   -0.7825  -28.4300  -84.3174 C   0  0  0  0  0  0  0  0  0  0  0  0
    0.4178  -28.5928  -82.1511 C   0  0  0  0  0  0  0  0  0  0  0  0
   -0.7695  -28.7619  -82.8517 C   0  0  0  0  0  0  0  0  0  0  0  0
   -1.9090  -29.1787  -82.1573 C   0  0  0  0  0  0  0  0  0  0  0  0
   -3.1039  -29.3622  -82.7196 N   0  0  0  0  0  0  0  0  0  0  0  0
   -1.8152  -29.4262  -80.8122 N   0  0  0  0  0  0  0  0  0  0  0  0
   -0.6282  -29.2698  -80.1536 C   0  0  0  0  0  0  0  0  0  0  0  0
    0.4914  -28.8522  -80.7993 N   0  0  0  0  0  0  0  0  0  0  0  0
    4.3478  -31.2889  -88.3059 O   0  5  0  0  0  0  0  0  0  0  0  0
    6.2879  -31.4231  -84.1946 O   0  0  0  0  0  0  0  0  0  0  0  0
    2.3257  -26.3728  -85.5321 S   0  0  0  0  0  0  0  0  0  0  0  0
    0.8297  -26.6501  -84.9478 C   0  0  0  0  0  0  0  0  0  0  0  0
    6.7049  -31.0933  -88.8832 O   0  0  0  0  0  0  0  0  0  0  0  0
    7.5025  -32.2614  -86.2207 O   0  5  0  0  0  0  0  0  0  0  0  0
    0.4828  -27.9843  -84.8501 N   0  0  0  0  0  0  0  0  0  0  0  0
    5.8035  -30.4343  -86.4343 O   0  0  0  0  0  0  0  0  0  0  0  0
    5.1128  -32.8399  -85.8161 O   0  0  0  0  0  0  0  0  0  0  0  0
    1.5394  -28.7462  -85.2843 C   0  0  1  0  0  0  0  0  0  0  0  0
    2.6154  -27.9364  -85.6805 C   0  0  2  0  0  0  0  0  0  0  0  0
    4.0036  -28.1938  -86.2125 C   0  0  0  0  0  0  0  0  0  0  0  0
    4.0070  -28.2777  -87.7426 C   0  0  0  0  0  0  0  0  0  0  0  0
    5.2206  -28.8760  -88.1808 O   0  0  0  0  0  0  0  0  0  0  0  0
  1 11  1  0  0  0  0
  3 13  1  6  0  0  0
  3 17  2  0  0  0  0
  3 20  1  0  0  0  0
  3 26  1  0  0  0  0
  4 14  1  1  0  0  0
  4 18  1  0  0  0  0
  4 21  2  0  0  0  0
  4 20  1  0  0  0  0
  5 19  1  0  0  0  0
  5  7  1  0  0  0  0
  6  7  2  0  0  0  0
  6 12  1  0  0  0  0
  7  8  1  0  0  0  0
  8  9  1  0  0  0  0
  8 10  2  0  0  0  0
 10 11  1  0  0  0  0
 11 12  2  0  0  0  0
 15 23  1  0  0  0  0
 15 16  1  0  0  0  0
 16 19  1  0  0  0  0
 19 22  1  0  0  0  0
 22  2  1  1  0  0  0
 22 23  1  0  0  0  0
 23 24  1  1  0  0  0
 24 25  1  0  0  0  0
 25 26  1  0  0  0  0
M  CHG  2  13  -1  18  -1
M  END
>  <CHROM.1>
67.71722201,-93.84962836,1.12737535,-179.33953150,-90.89723046,-164.02157123
72.94702709,38.80478494,2.82617399,-29.56562251,-85.00806659,-2.81819323
0.63185972,-0.89760200

>  <Name>
ligand

>  <RI>
0

>  <Rbt.Current_Directory>
/home/itssahil/PROJECTS/Mol_Feturizer/New_Systems/rnas/2CKY

>  <Rbt.Executable>
rbdock ($Id: //depot/dev/client3/rdock/2013.1/src/exe/rbdock.cxx#4 $)

>  <Rbt.Library>
libRbt.so (2013.1, Build901 2013/11/27)

>  <Rbt.Parameter_File>
/export/apps/rDock/src/rDock_2013.1_src/data/scripts/dock_solv.prm

>  <Rbt.Receptor>
prm/blind_docking_100.prm

>  <SCORE>
-18.9257

>  <SCORE.INTER>
-14.1612

>  <SCORE.INTER.CONST>
1

>  <SCORE.INTER.POLAR>
0

>  <SCORE.INTER.ROT>
8

>  <SCORE.INTER.SOLV>
12.7767

>  <SCORE.INTER.VDW>
-22.633

>  <SCORE.INTER.norm>
-0.544662

>  <SCORE.INTRA>
-4.76453

>  <SCORE.INTRA.DIHEDRAL>
-9.45511

>  <SCORE.INTRA.DIHEDRAL.0>
16.4846

>  <SCORE.INTRA.POLAR>
0

>  <SCORE.INTRA.POLAR.0>
0

>  <SCORE.INTRA.REPUL>
0

>  <SCORE.INTRA.REPUL.0>
0

>  <SCORE.INTRA.SOLV>
3.20023

>  <SCORE.INTRA.SOLV.lig_0>
-82.6983

>  <SCORE.INTRA.VDW>
-1.63709

>  <SCORE.INTRA.VDW.0>
-2.11466

>  <SCORE.INTRA.norm>
-0.183251

>  <SCORE.RESTR>
0

>  <SCORE.RESTR.CAVITY>
0

>  <SCORE.RESTR.norm>
0

>  <SCORE.SYSTEM>
0

>  <SCORE.SYSTEM.CONST>
0

>  <SCORE.SYSTEM.DIHEDRAL>
0

>  <SCORE.SYSTEM.SOLV>
0

>  <SCORE.SYSTEM.norm>
0

>  <SCORE.heavy>
26

>  <SCORE.norm>
-0.727913

>  <RMSD>
16.963

$$$$
ligand
 OpenBabel11021811423D
libRbt.so/2013.1/901 2013/11/27
 26 27  0  0  0  0  0  0  0  0999 V2000
    1.5768  -29.3980  -76.8416 C   0  0  0  0  0  0  0  0  0  0  0  0
    3.7355  -30.4431  -83.9193 C   0  0  0  0  0  0  0  0  0  0  0  0
    4.6858  -30.0853  -87.9532 P   0  0  2  0  0  0  0  0  0  0  0  0
    6.4048  -31.4598  -89.6344 P   0  0  2  0  0  0  0  0  0  0  0  0
    5.0589  -29.1072  -81.3865 C   0  0  0  0  0  0  0  0  0  0  0  0
    3.6739  -30.3603  -79.7519 C   0  0  0  0  0  0  0  0  0  0  0  0
    4.1294  -29.1292  -80.2057 C   0  0  0  0  0  0  0  0  0  0  0  0
    3.7504  -27.9737  -79.5161 C   0  0  0  0  0  0  0  0  0  0  0  0
    4.1350  -26.7415  -79.8499 N   0  0  0  0  0  0  0  0  0  0  0  0
    2.9263  -28.0891  -78.4266 N   0  0  0  0  0  0  0  0  0  0  0  0
    2.4783  -29.3128  -78.0153 C   0  0  0  0  0  0  0  0  0  0  0  0
    2.8417  -30.4534  -78.6570 N   0  0  0  0  0  0  0  0  0  0  0  0
    4.6550  -31.1364  -86.8613 O   0  5  0  0  0  0  0  0  0  0  0  0
    5.6805  -32.6409  -89.0287 O   0  0  0  0  0  0  0  0  0  0  0  0
    3.9910  -26.5386  -84.1489 S   0  0  0  0  0  0  0  0  0  0  0  0
    4.5935  -27.0729  -82.7320 C   0  0  0  0  0  0  0  0  0  0  0  0
    3.4275  -30.2998  -88.7902 O   0  0  0  0  0  0  0  0  0  0  0  0
    7.9051  -31.6705  -89.6549 O   0  5  0  0  0  0  0  0  0  0  0  0
    4.5374  -28.4428  -82.5570 N   0  0  0  0  0  0  0  0  0  0  0  0
    6.1157  -30.2066  -88.6927 O   0  0  0  0  0  0  0  0  0  0  0  0
    5.8763  -31.2484  -91.0387 O   0  0  0  0  0  0  0  0  0  0  0  0
    3.9710  -29.0058  -83.6740 C   0  0  1  0  0  0  0  0  0  0  0  0
    3.6377  -28.0233  -84.6196 C   0  0  2  0  0  0  0  0  0  0  0  0
    3.0245  -28.0354  -85.9981 C   0  0  0  0  0  0  0  0  0  0  0  0
    4.0350  -27.5914  -87.0611 C   0  0  0  0  0  0  0  0  0  0  0  0
    4.9950  -28.6217  -87.2607 O   0  0  0  0  0  0  0  0  0  0  0  0
  1 11  1  0  0  0  0
  3 13  1  1  0  0  0
  3 17  2  0  0  0  0
  3 20  1  0  0  0  0
  3 26  1  0  0  0  0
  4 14  1  1  0  0  0
  4 18  1  0  0  0  0
  4 21  2  0  0  0  0
  4 20  1  0  0  0  0
  5 19  1  0  0  0  0
  5  7  1  0  0  0  0
  6  7  2  0  0  0  0
  6 12  1  0  0  0  0
  7  8  1  0  0  0  0
  8  9  1  0  0  0  0
  8 10  2  0  0  0  0
 10 11  1  0  0  0  0
 11 12  2  0  0  0  0
 15 23  1  0  0  0  0
 15 16  1  0  0  0  0
 16 19  1  0  0  0  0
 19 22  1  0  0  0  0
 22  2  1  6  0  0  0
 22 23  1  0  0  0  0
 23 24  1  6  0  0  0
 24 25  1  0  0  0  0
 25 26  1  0  0  0  0
M  CHG  2  13  -1  18  -1
M  END
>  <CHROM.1>
71.73305778,83.22974359,116.42456460,-33.97704095,66.61492200,72.70311452
68.63889456,-105.33152212,4.44019566,-29.41756567,-84.70565909,-2.65864045
1.29521462,-0.72180648

>  <Name>
ligand

>  <RI>
0

>  <Rbt.Current_Directory>
/home/itssahil/PROJECTS/Mol_Feturizer/New_Systems/rnas/2CKY

>  <Rbt.Executable>
rbdock ($Id: //depot/dev/client3/rdock/2013.1/src/exe/rbdock.cxx#4 $)

>  <Rbt.Library>
libRbt.so (2013.1, Build901 2013/11/27)

>  <Rbt.Parameter_File>
/export/apps/rDock/src/rDock_2013.1_src/data/scripts/dock_solv.prm

>  <Rbt.Receptor>
prm/blind_docking_100.prm

>  <SCORE>
-15.1516

>  <SCORE.INTER>
-11.6319

>  <SCORE.INTER.CONST>
1

>  <SCORE.INTER.POLAR>
0

>  <SCORE.INTER.ROT>
8

>  <SCORE.INTER.SOLV>
15.8766

>  <SCORE.INTER.VDW>
-21.9801

>  <SCORE.INTER.norm>
-0.44738

>  <SCORE.INTRA>
-3.51975

>  <SCORE.INTRA.DIHEDRAL>
-7.37727

>  <SCORE.INTRA.DIHEDRAL.0>
16.4846

>  <SCORE.INTRA.POLAR>
0

>  <SCORE.INTRA.POLAR.0>
0

>  <SCORE.INTRA.REPUL>
0

>  <SCORE.INTRA.REPUL.0>
0

>  <SCORE.INTRA.SOLV>
3.43684

>  <SCORE.INTRA.SOLV.lig_0>
-82.6983

>  <SCORE.INTRA.VDW>
-1.54954

>  <SCORE.INTRA.VDW.0>
-2.11466

>  <SCORE.INTRA.norm>
-0.135375

>  <SCORE.RESTR>
0

>  <SCORE.RESTR.CAVITY>
0

>  <SCORE.RESTR.norm>
0

>  <SCORE.SYSTEM>
0

>  <SCORE.SYSTEM.CONST>
0

>  <SCORE.SYSTEM.DIHEDRAL>
0

>  <SCORE.SYSTEM.SOLV>
0

>  <SCORE.SYSTEM.norm>
0

>  <SCORE.heavy>
26

>  <SCORE.norm>
-0.582755

>  <RMSD>
16.976

$$$$
ligand
 OpenBabel11021811423D
libRbt.so/2013.1/901 2013/11/27
 26 27  0  0  0  0  0  0  0  0999 V2000
   -1.0730  -29.4437  -79.0003 C   0  0  0  0  0  0  0  0  0  0  0  0
    2.4819  -29.8123  -85.3370 C   0  0  0  0  0  0  0  0  0  0  0  0
    5.9344  -26.5533  -82.2120 P   0  0  2  0  0  0  0  0  0  0  0  0
    8.3241  -25.1800  -81.9404 P   0  0  2  0  0  0  0  0  0  0  0  0
   -0.3406  -28.5977  -84.6228 C   0  0  0  0  0  0  0  0  0  0  0  0
   -0.7970  -27.7977  -82.3181 C   0  0  0  0  0  0  0  0  0  0  0  0
   -0.5004  -28.8672  -83.1529 C   0  0  0  0  0  0  0  0  0  0  0  0
   -0.4175  -30.1497  -82.6027 C   0  0  0  0  0  0  0  0  0  0  0  0
   -0.1527  -31.2512  -83.3058 N   0  0  0  0  0  0  0  0  0  0  0  0
   -0.6118  -30.3095  -81.2551 N   0  0  0  0  0  0  0  0  0  0  0  0
   -0.8829  -29.2350  -80.4555 C   0  0  0  0  0  0  0  0  0  0  0  0
   -0.9837  -27.9798  -80.9646 N   0  0  0  0  0  0  0  0  0  0  0  0
    5.0685  -25.8357  -81.1954 O   0  5  0  0  0  0  0  0  0  0  0  0
    9.2689  -26.3347  -82.1868 O   0  0  0  0  0  0  0  0  0  0  0  0
    2.3900  -25.8943  -85.4001 S   0  0  0  0  0  0  0  0  0  0  0  0
    0.9252  -26.4987  -85.0189 C   0  0  0  0  0  0  0  0  0  0  0  0
    6.4755  -27.7972  -81.5123 O   0  0  0  0  0  0  0  0  0  0  0  0
    7.9241  -25.0821  -80.4823 O   0  5  0  0  0  0  0  0  0  0  0  0
    0.8586  -27.8787  -84.9811 N   0  0  0  0  0  0  0  0  0  0  0  0
    6.9995  -25.4790  -82.7754 O   0  0  0  0  0  0  0  0  0  0  0  0
    9.0051  -23.9046  -82.3938 O   0  0  0  0  0  0  0  0  0  0  0  0
    2.0983  -28.3870  -85.2816 C   0  0  1  0  0  0  0  0  0  0  0  0
    3.0198  -27.3566  -85.5255 C   0  0  2  0  0  0  0  0  0  0  0  0
    4.4866  -27.2991  -85.8744 C   0  0  0  0  0  0  0  0  0  0  0  0
    5.3615  -27.6173  -84.6572 C   0  0  0  0  0  0  0  0  0  0  0  0
    5.0877  -26.6827  -83.6206 O   0  0  0  0  0  0  0  0  0  0  0  0
  1 11  1  0  0  0  0
  3 13  1  1  0  0  0
  3 17  2  0  0  0  0
  3 20  1  0  0  0  0
  3 26  1  0  0  0  0
  4 14  1  6  0  0  0
  4 18  1  0  0  0  0
  4 21  2  0  0  0  0
  4 20  1  0  0  0  0
  5 19  1  0  0  0  0
  5  7  1  0  0  0  0
  6  7  2  0  0  0  0
  6 12  1  0  0  0  0
  7  8  1  0  0  0  0
  8  9  1  0  0  0  0
  8 10  2  0  0  0  0
 10 11  1  0  0  0  0
 11 12  2  0  0  0  0
 15 23  1  0  0  0  0
 15 16  1  0  0  0  0
 16 19  1  0  0  0  0
 19 22  1  0  0  0  0
 22  2  1  1  0  0  0
 22 23  1  0  0  0  0
 23 24  1  1  0  0  0
 24 25  1  0  0  0  0
 25 26  1  0  0  0  0
M  CHG  2  13  -1  18  -1
M  END
>  <CHROM.1>
82.36910048,-88.65162838,71.35178304,77.43213415,104.67772457,-59.07731675
-172.24614810,-159.67548466,3.58387555,-27.30131763,-82.97870483,3.12768301
-0.41772959,-1.45987962

>  <Name>
ligand

>  <RI>
0

>  <Rbt.Current_Directory>
/home/itssahil/PROJECTS/Mol_Feturizer/New_Systems/rnas/2CKY

>  <Rbt.Executable>
rbdock ($Id: //depot/dev/client3/rdock/2013.1/src/exe/rbdock.cxx#4 $)

>  <Rbt.Library>
libRbt.so (2013.1, Build901 2013/11/27)

>  <Rbt.Parameter_File>
/export/apps/rDock/src/rDock_2013.1_src/data/scripts/dock_solv.prm

>  <Rbt.Receptor>
prm/blind_docking_100.prm

>  <SCORE>
-22.1455

>  <SCORE.INTER>
-16.0023

>  <SCORE.INTER.CONST>
1

>  <SCORE.INTER.POLAR>
0

>  <SCORE.INTER.ROT>
8

>  <SCORE.INTER.SOLV>
13.3028

>  <SCORE.INTER.VDW>
-24.0358

>  <SCORE.INTER.norm>
-0.615475

>  <SCORE.INTRA>
-6.14313

>  <SCORE.INTRA.DIHEDRAL>
-9.68487

>  <SCORE.INTRA.DIHEDRAL.0>
16.4846

>  <SCORE.INTRA.POLAR>
0

>  <SCORE.INTRA.POLAR.0>
0

>  <SCORE.INTRA.REPUL>
0

>  <SCORE.INTRA.REPUL.0>
0

>  <SCORE.INTRA.SOLV>
1.61671

>  <SCORE.INTRA.SOLV.lig_0>
-82.6983

>  <SCORE.INTRA.VDW>
-2.10905

>  <SCORE.INTRA.VDW.0>
-2.11466

>  <SCORE.INTRA.norm>
-0.236274

>  <SCORE.RESTR>
0

>  <SCORE.RESTR.CAVITY>
0

>  <SCORE.RESTR.norm>
0

>  <SCORE.SYSTEM>
0

>  <SCORE.SYSTEM.CONST>
0

>  <SCORE.SYSTEM.DIHEDRAL>
0

>  <SCORE.SYSTEM.SOLV>
0

>  <SCORE.SYSTEM.norm>
0

>  <SCORE.heavy>
26

>  <SCORE.norm>
-0.851749

>  <RMSD>
16.983

$$$$
ligand
 OpenBabel11021811423D
libRbt.so/2013.1/901 2013/11/27
 26 27  0  0  0  0  0  0  0  0999 V2000
    2.0248  -28.3542  -78.1028 C   0  0  0  0  0  0  0  0  0  0  0  0
    5.5014  -29.3342  -84.7306 C   0  0  0  0  0  0  0  0  0  0  0  0
    5.7569  -31.5591  -89.4055 P   0  0  2  0  0  0  0  0  0  0  0  0
    6.7212  -33.8339  -88.1541 P   0  0  2  0  0  0  0  0  0  0  0  0
    4.9952  -26.9023  -82.7862 C   0  0  0  0  0  0  0  0  0  0  0  0
    4.4504  -26.6948  -80.3736 C   0  0  0  0  0  0  0  0  0  0  0  0
    4.2067  -27.3347  -81.5820 C   0  0  0  0  0  0  0  0  0  0  0  0
    3.2065  -28.3096  -81.6394 C   0  0  0  0  0  0  0  0  0  0  0  0
    2.8755  -28.9797  -82.7435 N   0  0  0  0  0  0  0  0  0  0  0  0
    2.5113  -28.6178  -80.4987 N   0  0  0  0  0  0  0  0  0  0  0  0
    2.7870  -27.9849  -79.3194 C   0  0  0  0  0  0  0  0  0  0  0  0
    3.7430  -27.0236  -79.2371 N   0  0  0  0  0  0  0  0  0  0  0  0
    5.0989  -32.3251  -90.5360 O   0  5  0  0  0  0  0  0  0  0  0  0
    6.3934  -34.6393  -86.9170 O   0  0  0  0  0  0  0  0  0  0  0  0
    2.8661  -26.7630  -86.0749 S   0  0  0  0  0  0  0  0  0  0  0  0
    3.4244  -26.3049  -84.6139 C   0  0  0  0  0  0  0  0  0  0  0  0
    7.0870  -31.0471  -89.9518 O   0  0  0  0  0  0  0  0  0  0  0  0
    8.1593  -33.3571  -88.1499 O   0  5  0  0  0  0  0  0  0  0  0  0
    4.3558  -27.1591  -84.0545 N   0  0  0  0  0  0  0  0  0  0  0  0
    5.7930  -32.5382  -88.1225 O   0  0  0  0  0  0  0  0  0  0  0  0
    6.4487  -34.6977  -89.3687 O   0  0  0  0  0  0  0  0  0  0  0  0
    4.5715  -28.2025  -84.9207 C   0  0  1  0  0  0  0  0  0  0  0  0
    3.7890  -28.0665  -86.0781 C   0  0  2  0  0  0  0  0  0  0  0  0
    3.6151  -28.8643  -87.3469 C   0  0  0  0  0  0  0  0  0  0  0  0
    4.9202  -29.5578  -87.7520 C   0  0  0  0  0  0  0  0  0  0  0  0
    4.6515  -30.5143  -88.7697 O   0  0  0  0  0  0  0  0  0  0  0  0
  1 11  1  0  0  0  0
  3 13  1  6  0  0  0
  3 17  2  0  0  0  0
  3 20  1  0  0  0  0
  3 26  1  0  0  0  0
  4 14  1  1  0  0  0
  4 18  1  0  0  0  0
  4 21  2  0  0  0  0
  4 20  1  0  0  0  0
  5 19  1  0  0  0  0
  5  7  1  0  0  0  0
  6  7  2  0  0  0  0
  6 12  1  0  0  0  0
  7  8  1  0  0  0  0
  8  9  1  0  0  0  0
  8 10  2  0  0  0  0
 10 11  1  0  0  0  0
 11 12  2  0  0  0  0
 15 23  1  0  0  0  0
 15 16  1  0  0  0  0
 16 19  1  0  0  0  0
 19 22  1  0  0  0  0
 22  2  1  6  0  0  0
 22 23  1  0  0  0  0
 23 24  1  6  0  0  0
 24 25  1  0  0  0  0
 25 26  1  0  0  0  0
M  CHG  2  13  -1  18  -1
M  END
>  <CHROM.1>
67.55549947,83.94667472,-155.13863189,-172.05311577,147.22321399,167.64102628
-175.08152652,-175.41215041,4.74784241,-29.87633299,-85.58313126,-2.43525848
1.16381576,-1.34157802

>  <Name>
ligand

>  <RI>
0

>  <Rbt.Current_Directory>
/home/itssahil/PROJECTS/Mol_Feturizer/New_Systems/rnas/2CKY

>  <Rbt.Executable>
rbdock ($Id: //depot/dev/client3/rdock/2013.1/src/exe/rbdock.cxx#4 $)

>  <Rbt.Library>
libRbt.so (2013.1, Build901 2013/11/27)

>  <Rbt.Parameter_File>
/export/apps/rDock/src/rDock_2013.1_src/data/scripts/dock_solv.prm

>  <Rbt.Receptor>
prm/blind_docking_100.prm

>  <SCORE>
-14.4512

>  <SCORE.INTER>
-11.4421

>  <SCORE.INTER.CONST>
1

>  <SCORE.INTER.POLAR>
0

>  <SCORE.INTER.ROT>
8

>  <SCORE.INTER.SOLV>
9.98264

>  <SCORE.INTER.VDW>
-19.889

>  <SCORE.INTER.norm>
-0.440082

>  <SCORE.INTRA>
-3.00911

>  <SCORE.INTRA.DIHEDRAL>
-10.4691

>  <SCORE.INTRA.DIHEDRAL.0>
16.4846

>  <SCORE.INTRA.POLAR>
0

>  <SCORE.INTRA.POLAR.0>
0

>  <SCORE.INTRA.REPUL>
0

>  <SCORE.INTRA.REPUL.0>
0

>  <SCORE.INTRA.SOLV>
5.91257

>  <SCORE.INTRA.SOLV.lig_0>
-82.6983

>  <SCORE.INTRA.VDW>
-0.730834

>  <SCORE.INTRA.VDW.0>
-2.11466

>  <SCORE.INTRA.norm>
-0.115735

>  <SCORE.RESTR>
0

>  <SCORE.RESTR.CAVITY>
0

>  <SCORE.RESTR.norm>
0

>  <SCORE.SYSTEM>
0

>  <SCORE.SYSTEM.CONST>
0

>  <SCORE.SYSTEM.DIHEDRAL>
0

>  <SCORE.SYSTEM.SOLV>
0

>  <SCORE.SYSTEM.norm>
0

>  <SCORE.heavy>
26

>  <SCORE.norm>
-0.555817

>  <RMSD>
17.019

$$$$
ligand
 OpenBabel11021811423D
libRbt.so/2013.1/901 2013/11/27
 26 27  0  0  0  0  0  0  0  0999 V2000
    1.9131  -26.2702  -77.7678 C   0  0  0  0  0  0  0  0  0  0  0  0
    1.6956  -28.1613  -84.9477 C   0  0  0  0  0  0  0  0  0  0  0  0
    3.4542  -30.9408  -88.5898 P   0  0  2  0  0  0  0  0  0  0  0  0
    4.0098  -32.8699  -86.6818 P   0  0  2  0  0  0  0  0  0  0  0  0
    2.6791  -29.6412  -82.3412 C   0  0  0  0  0  0  0  0  0  0  0  0
    1.2513  -28.5121  -80.6539 C   0  0  0  0  0  0  0  0  0  0  0  0
    2.5281  -28.7310  -81.1548 C   0  0  0  0  0  0  0  0  0  0  0  0
    3.6175  -28.1432  -80.5051 C   0  0  0  0  0  0  0  0  0  0  0  0
    4.8866  -28.2923  -80.8857 N   0  0  0  0  0  0  0  0  0  0  0  0
    3.3910  -27.3541  -79.4073 N   0  0  0  0  0  0  0  0  0  0  0  0
    2.1213  -27.1411  -78.9493 C   0  0  0  0  0  0  0  0  0  0  0  0
    1.0454  -27.7108  -79.5514 N   0  0  0  0  0  0  0  0  0  0  0  0
    2.2064  -30.4710  -89.3111 O   0  5  0  0  0  0  0  0  0  0  0  0
    4.5467  -33.7515  -87.7869 O   0  0  0  0  0  0  0  0  0  0  0  0
    5.5848  -28.6123  -84.7633 S   0  0  0  0  0  0  0  0  0  0  0  0
    4.8693  -29.2357  -83.4384 C   0  0  0  0  0  0  0  0  0  0  0  0
    4.3490  -31.5762  -89.6506 O   0  0  0  0  0  0  0  0  0  0  0  0
    3.2498  -33.6698  -85.6434 O   0  5  0  0  0  0  0  0  0  0  0  0
    3.4928  -29.1142  -83.4106 N   0  0  0  0  0  0  0  0  0  0  0  0
    2.9736  -31.8628  -87.3549 O   0  0  0  0  0  0  0  0  0  0  0  0
    5.1770  -32.1424  -86.0460 O   0  0  0  0  0  0  0  0  0  0  0  0
    3.0842  -28.4801  -84.5579 C   0  0  1  0  0  0  0  0  0  0  0  0
    4.1798  -28.1655  -85.3772 C   0  0  2  0  0  0  0  0  0  0  0  0
    4.3492  -27.5042  -86.7228 C   0  0  0  0  0  0  0  0  0  0  0  0
    3.6961  -28.3308  -87.8357 C   0  0  0  0  0  0  0  0  0  0  0  0
    4.0111  -29.7054  -87.6509 O   0  0  0  0  0  0  0  0  0  0  0  0
  1 11  1  0  0  0  0
  3 13  1  6  0  0  0
  3 17  2  0  0  0  0
  3 20  1  0  0  0  0
  3 26  1  0  0  0  0
  4 14  1  6  0  0  0
  4 18  1  0  0  0  0
  4 21  2  0  0  0  0
  4 20  1  0  0  0  0
  5 19  1  0  0  0  0
  5  7  1  0  0  0  0
  6  7  2  0  0  0  0
  6 12  1  0  0  0  0
  7  8  1  0  0  0  0
  8  9  1  0  0  0  0
  8 10  2  0  0  0  0
 10 11  1  0  0  0  0
 11 12  2  0  0  0  0
 15 23  1  0  0  0  0
 15 16  1  0  0  0  0
 16 19  1  0  0  0  0
 19 22  1  0  0  0  0
 22  2  1  6  0  0  0
 22 23  1  0  0  0  0
 23 24  1  6  0  0  0
 24 25  1  0  0  0  0
 25 26  1  0  0  0  0
M  CHG  2  13  -1  18  -1
M  END
>  <CHROM.1>
160.89890037,85.50574186,131.43542098,-55.34869226,115.26361402,-43.67425262
177.23131844,-20.63738941,3.53535682,-29.74311206,-84.73410853,2.66408331
1.41875323,0.02178258

>  <Name>
ligand

>  <RI>
0

>  <Rbt.Current_Directory>
/home/itssahil/PROJECTS/Mol_Feturizer/New_Systems/rnas/2CKY

>  <Rbt.Executable>
rbdock ($Id: //depot/dev/client3/rdock/2013.1/src/exe/rbdock.cxx#4 $)

>  <Rbt.Library>
libRbt.so (2013.1, Build901 2013/11/27)

>  <Rbt.Parameter_File>
/export/apps/rDock/src/rDock_2013.1_src/data/scripts/dock_solv.prm

>  <Rbt.Receptor>
prm/blind_docking_100.prm

>  <SCORE>
-12.1641

>  <SCORE.INTER>
-6.23297

>  <SCORE.INTER.CONST>
1

>  <SCORE.INTER.POLAR>
0

>  <SCORE.INTER.ROT>
8

>  <SCORE.INTER.SOLV>
9.12191

>  <SCORE.INTER.VDW>
-16.1293

>  <SCORE.INTER.norm>
-0.23973

>  <SCORE.INTRA>
-5.93109

>  <SCORE.INTRA.DIHEDRAL>
-8.20107

>  <SCORE.INTRA.DIHEDRAL.0>
16.4846

>  <SCORE.INTRA.POLAR>
0

>  <SCORE.INTRA.POLAR.0>
0

>  <SCORE.INTRA.REPUL>
0

>  <SCORE.INTRA.REPUL.0>
0

>  <SCORE.INTRA.SOLV>
1.27809

>  <SCORE.INTRA.SOLV.lig_0>
-82.6983

>  <SCORE.INTRA.VDW>
-2.46961

>  <SCORE.INTRA.VDW.0>
-2.11466

>  <SCORE.INTRA.norm>
-0.228119

>  <SCORE.RESTR>
0

>  <SCORE.RESTR.CAVITY>
0

>  <SCORE.RESTR.norm>
0

>  <SCORE.SYSTEM>
0

>  <SCORE.SYSTEM.CONST>
0

>  <SCORE.SYSTEM.DIHEDRAL>
0

>  <SCORE.SYSTEM.SOLV>
0

>  <SCORE.SYSTEM.norm>
0

>  <SCORE.heavy>
26

>  <SCORE.norm>
-0.467849

>  <RMSD>
17.065

$$$$
ligand
 OpenBabel11021811423D
libRbt.so/2013.1/901 2013/11/27
 26 27  0  0  0  0  0  0  0  0999 V2000
   -0.1195  -28.9683  -76.6921 C   0  0  0  0  0  0  0  0  0  0  0  0
    4.1113  -29.4261  -82.6762 C   0  0  0  0  0  0  0  0  0  0  0  0
    3.8888  -28.1463  -87.1454 P   0  0  2  0  0  0  0  0  0  0  0  0
    2.9542  -30.7466  -87.3345 P   0  0  2  0  0  0  0  0  0  0  0  0
    4.7794  -28.7724  -79.6633 C   0  0  0  0  0  0  0  0  0  0  0  0
    2.8287  -29.9773  -78.7128 C   0  0  0  0  0  0  0  0  0  0  0  0
    3.4866  -28.7681  -78.8969 C   0  0  0  0  0  0  0  0  0  0  0  0
    2.9505  -27.6137  -78.3187 C   0  0  0  0  0  0  0  0  0  0  0  0
    3.4992  -26.4024  -78.4162 N   0  0  0  0  0  0  0  0  0  0  0  0
    1.7835  -27.7070  -77.6054 N   0  0  0  0  0  0  0  0  0  0  0  0
    1.1483  -28.9078  -77.4580 C   0  0  0  0  0  0  0  0  0  0  0  0
    1.6533  -30.0480  -77.9961 N   0  0  0  0  0  0  0  0  0  0  0  0
    3.6517  -27.8848  -88.6197 O   0  5  0  0  0  0  0  0  0  0  0  0
    1.9094  -31.6050  -86.6578 O   0  0  0  0  0  0  0  0  0  0  0  0
    5.2381  -25.7196  -82.0796 S   0  0  0  0  0  0  0  0  0  0  0  0
    5.2170  -26.5482  -80.6763 C   0  0  0  0  0  0  0  0  0  0  0  0
    5.3802  -28.4351  -86.9958 O   0  0  0  0  0  0  0  0  0  0  0  0
    4.3569  -31.2541  -87.0691 O   0  5  0  0  0  0  0  0  0  0  0  0
    4.8216  -27.8679  -80.7873 N   0  0  0  0  0  0  0  0  0  0  0  0
    2.8473  -29.2925  -86.6900 O   0  0  0  0  0  0  0  0  0  0  0  0
    2.6647  -30.7309  -88.8217 O   0  0  0  0  0  0  0  0  0  0  0  0
    4.5483  -28.1355  -82.1060 C   0  0  1  0  0  0  0  0  0  0  0  0
    4.7566  -26.9998  -82.9043 C   0  0  2  0  0  0  0  0  0  0  0  0
    4.6411  -26.6971  -84.3779 C   0  0  0  0  0  0  0  0  0  0  0  0
    3.1928  -26.8278  -84.8615 C   0  0  0  0  0  0  0  0  0  0  0  0
    3.1757  -26.9384  -86.2794 O   0  0  0  0  0  0  0  0  0  0  0  0
  1 11  1  0  0  0  0
  3 13  1  6  0  0  0
  3 17  2  0  0  0  0
  3 20  1  0  0  0  0
  3 26  1  0  0  0  0
  4 14  1  1  0  0  0
  4 18  1  0  0  0  0
  4 21  2  0  0  0  0
  4 20  1  0  0  0  0
  5 19  1  0  0  0  0
  5  7  1  0  0  0  0
  6  7  2  0  0  0  0
  6 12  1  0  0  0  0
  7  8  1  0  0  0  0
  8  9  1  0  0  0  0
  8 10  2  0  0  0  0
 10 11  1  0  0  0  0
 11 12  2  0  0  0  0
 15 23  1  0  0  0  0
 15 16  1  0  0  0  0
 16 19  1  0  0  0  0
 19 22  1  0  0  0  0
 22  2  1  6  0  0  0
 22 23  1  0  0  0  0
 23 24  1  6  0  0  0
 24 25  1  0  0  0  0
 25 26  1  0  0  0  0
M  CHG  2  13  -1  18  -1
M  END
>  <CHROM.1>
63.57807936,88.01043887,125.47043243,176.84641084,-116.22296023,-162.53891658
61.17076928,-179.34522600,3.50209512,-28.48446328,-83.26298117,1.71792479
0.94179185,1.31549555

>  <Name>
ligand

>  <RI>
0

>  <Rbt.Current_Directory>
/home/itssahil/PROJECTS/Mol_Feturizer/New_Systems/rnas/2CKY

>  <Rbt.Executable>
rbdock ($Id: //depot/dev/client3/rdock/2013.1/src/exe/rbdock.cxx#4 $)

>  <Rbt.Library>
libRbt.so (2013.1, Build901 2013/11/27)

>  <Rbt.Parameter_File>
/export/apps/rDock/src/rDock_2013.1_src/data/scripts/dock_solv.prm

>  <Rbt.Receptor>
prm/blind_docking_100.prm

>  <SCORE>
-16.5456

>  <SCORE.INTER>
-11.6666

>  <SCORE.INTER.CONST>
1

>  <SCORE.INTER.POLAR>
0

>  <SCORE.INTER.ROT>
8

>  <SCORE.INTER.SOLV>
17.876

>  <SCORE.INTER.VDW>
-22.6697

>  <SCORE.INTER.norm>
-0.448716

>  <SCORE.INTRA>
-4.89413

>  <SCORE.INTRA.DIHEDRAL>
-10.6534

>  <SCORE.INTRA.DIHEDRAL.0>
16.4846

>  <SCORE.INTRA.POLAR>
0

>  <SCORE.INTRA.POLAR.0>
0

>  <SCORE.INTRA.REPUL>
0

>  <SCORE.INTRA.REPUL.0>
0

>  <SCORE.INTRA.SOLV>
4.67329

>  <SCORE.INTRA.SOLV.lig_0>
-82.6983

>  <SCORE.INTRA.VDW>
-1.90408

>  <SCORE.INTRA.VDW.0>
-2.11466

>  <SCORE.INTRA.norm>
-0.188236

>  <SCORE.RESTR>
0.0151514

>  <SCORE.RESTR.CAVITY>
0.0151514

>  <SCORE.RESTR.norm>
0.000582747

>  <SCORE.SYSTEM>
0

>  <SCORE.SYSTEM.CONST>
0

>  <SCORE.SYSTEM.DIHEDRAL>
0

>  <SCORE.SYSTEM.SOLV>
0

>  <SCORE.SYSTEM.norm>
0

>  <SCORE.heavy>
26

>  <SCORE.norm>
-0.636369

>  <RMSD>
17.106

$$$$
ligand
 OpenBabel11021811423D
libRbt.so/2013.1/901 2013/11/27
 26 27  0  0  0  0  0  0  0  0999 V2000
    3.3354  -25.8748  -77.6495 C   0  0  0  0  0  0  0  0  0  0  0  0
   -0.3181  -31.1769  -82.6412 C   0  0  0  0  0  0  0  0  0  0  0  0
    2.4907  -28.6323  -85.3285 P   0  0  2  0  0  0  0  0  0  0  0  0
    4.5531  -27.5276  -83.8463 P   0  0  2  0  0  0  0  0  0  0  0  0
   -0.6186  -29.0176  -80.3612 C   0  0  0  0  0  0  0  0  0  0  0  0
    0.1509  -26.9454  -79.2325 C   0  0  0  0  0  0  0  0  0  0  0  0
    0.4590  -28.2248  -79.6764 C   0  0  0  0  0  0  0  0  0  0  0  0
    1.7336  -28.7388  -79.4208 C   0  0  0  0  0  0  0  0  0  0  0  0
    2.1383  -29.9556  -79.7862 N   0  0  0  0  0  0  0  0  0  0  0  0
    2.6453  -27.9583  -78.7582 N   0  0  0  0  0  0  0  0  0  0  0  0
    2.3194  -26.6954  -78.3507 C   0  0  0  0  0  0  0  0  0  0  0  0
    1.0844  -26.1754  -78.5724 N   0  0  0  0  0  0  0  0  0  0  0  0
    3.3461  -28.8395  -86.5627 O   0  5  0  0  0  0  0  0  0  0  0  0
    3.7962  -26.2185  -83.8386 O   0  0  0  0  0  0  0  0  0  0  0  0
   -0.9465  -27.5472  -83.9805 S   0  0  0  0  0  0  0  0  0  0  0  0
   -0.9216  -27.5636  -82.3510 C   0  0  0  0  0  0  0  0  0  0  0  0
    1.6969  -27.3506  -85.5675 O   0  0  0  0  0  0  0  0  0  0  0  0
    5.5249  -27.6084  -85.0059 O   0  5  0  0  0  0  0  0  0  0  0  0
   -0.7139  -28.8078  -81.7861 N   0  0  0  0  0  0  0  0  0  0  0  0
    3.4756  -28.6845  -84.0504 O   0  0  0  0  0  0  0  0  0  0  0  0
    5.2850  -27.6602  -82.5262 O   0  0  0  0  0  0  0  0  0  0  0  0
   -0.5728  -29.7300  -82.7936 C   0  0  1  0  0  0  0  0  0  0  0  0
   -0.6824  -29.1207  -84.0535 C   0  0  2  0  0  0  0  0  0  0  0  0
   -0.6004  -29.6022  -85.4810 C   0  0  0  0  0  0  0  0  0  0  0  0
    0.5855  -30.5518  -85.6813 C   0  0  0  0  0  0  0  0  0  0  0  0
    1.7183  -30.0474  -84.9846 O   0  0  0  0  0  0  0  0  0  0  0  0
  1 11  1  0  0  0  0
  3 13  1  6  0  0  0
  3 17  2  0  0  0  0
  3 20  1  0  0  0  0
  3 26  1  0  0  0  0
  4 14  1  6  0  0  0
  4 18  1  0  0  0  0
  4 21  2  0  0  0  0
  4 20  1  0  0  0  0
  5 19  1  0  0  0  0
  5  7  1  0  0  0  0
  6  7  2  0  0  0  0
  6 12  1  0  0  0  0
  7  8  1  0  0  0  0
  8  9  1  0  0  0  0
  8 10  2  0  0  0  0
 10 11  1  0  0  0  0
 11 12  2  0  0  0  0
 15 23  1  0  0  0  0
 15 16  1  0  0  0  0
 16 19  1  0  0  0  0
 19 22  1  0  0  0  0
 22  2  1  6  0  0  0
 22 23  1  0  0  0  0
 23 24  1  6  0  0  0
 24 25  1  0  0  0  0
 25 26  1  0  0  0  0
M  CHG  2  13  -1  18  -1
M  END
>  <CHROM.1>
67.17200019,-57.43486812,87.72864322,55.54480299,134.84544766,-41.87418010
-64.37866929,-76.56697072,1.73061274,-28.26332954,-82.75810606,-1.69991428
-0.32308053,-1.80570373

>  <Name>
ligand

>  <RI>
0

>  <Rbt.Current_Directory>
/home/itssahil/PROJECTS/Mol_Feturizer/New_Systems/rnas/2CKY

>  <Rbt.Executable>
rbdock ($Id: //depot/dev/client3/rdock/2013.1/src/exe/rbdock.cxx#4 $)

>  <Rbt.Library>
libRbt.so (2013.1, Build901 2013/11/27)

>  <Rbt.Parameter_File>
/export/apps/rDock/src/rDock_2013.1_src/data/scripts/dock_solv.prm

>  <Rbt.Receptor>
prm/blind_docking_100.prm

>  <SCORE>
-17.6117

>  <SCORE.INTER>
-12.0495

>  <SCORE.INTER.CONST>
1

>  <SCORE.INTER.POLAR>
0

>  <SCORE.INTER.ROT>
8

>  <SCORE.INTER.SOLV>
13.2151

>  <SCORE.INTER.VDW>
-21.3714

>  <SCORE.INTER.norm>
-0.463443

>  <SCORE.INTRA>
-5.56218

>  <SCORE.INTRA.DIHEDRAL>
-10.0852

>  <SCORE.INTRA.DIHEDRAL.0>
16.4846

>  <SCORE.INTRA.POLAR>
0

>  <SCORE.INTRA.POLAR.0>
0

>  <SCORE.INTRA.REPUL>
0

>  <SCORE.INTRA.REPUL.0>
0

>  <SCORE.INTRA.SOLV>
3.35835

>  <SCORE.INTRA.SOLV.lig_0>
-82.6983

>  <SCORE.INTRA.VDW>
-2.19876

>  <SCORE.INTRA.VDW.0>
-2.11466

>  <SCORE.INTRA.norm>
-0.21393

>  <SCORE.RESTR>
0

>  <SCORE.RESTR.CAVITY>
0

>  <SCORE.RESTR.norm>
0

>  <SCORE.SYSTEM>
0

>  <SCORE.SYSTEM.CONST>
0

>  <SCORE.SYSTEM.DIHEDRAL>
0

>  <SCORE.SYSTEM.SOLV>
0

>  <SCORE.SYSTEM.norm>
0

>  <SCORE.heavy>
26

>  <SCORE.norm>
-0.677373

>  <RMSD>
17.121

$$$$
ligand
 OpenBabel11021811423D
libRbt.so/2013.1/901 2013/11/27
 26 27  0  0  0  0  0  0  0  0999 V2000
    0.5254  -27.5283  -78.5529 C   0  0  0  0  0  0  0  0  0  0  0  0
    2.5946  -30.5701  -86.2842 C   0  0  0  0  0  0  0  0  0  0  0  0
    6.0237  -31.4286  -88.3198 P   0  0  2  0  0  0  0  0  0  0  0  0
    7.4171  -32.7364  -86.3152 P   0  0  2  0  0  0  0  0  0  0  0  0
    0.7932  -29.4664  -83.9415 C   0  0  0  0  0  0  0  0  0  0  0  0
   -0.3907  -28.3800  -82.0499 C   0  0  0  0  0  0  0  0  0  0  0  0
    0.7804  -28.9523  -82.5293 C   0  0  0  0  0  0  0  0  0  0  0  0
    1.8736  -29.0751  -81.6667 C   0  0  0  0  0  0  0  0  0  0  0  0
    3.0421  -29.6178  -82.0101 N   0  0  0  0  0  0  0  0  0  0  0  0
    1.7630  -28.6097  -80.3819 N   0  0  0  0  0  0  0  0  0  0  0  0
    0.6039  -28.0332  -79.9444 C   0  0  0  0  0  0  0  0  0  0  0  0
   -0.4788  -27.9138  -80.7556 N   0  0  0  0  0  0  0  0  0  0  0  0
    5.2606  -32.6502  -88.7927 O   0  5  0  0  0  0  0  0  0  0  0  0
    8.7551  -32.2761  -86.8486 O   0  0  0  0  0  0  0  0  0  0  0  0
    2.7325  -26.6726  -85.8915 S   0  0  0  0  0  0  0  0  0  0  0  0
    1.7252  -27.3272  -84.7901 C   0  0  0  0  0  0  0  0  0  0  0  0
    7.2037  -31.2644  -89.2740 O   0  0  0  0  0  0  0  0  0  0  0  0
    6.9909  -34.0549  -86.9281 O   0  5  0  0  0  0  0  0  0  0  0  0
    1.6053  -28.7024  -84.8582 N   0  0  0  0  0  0  0  0  0  0  0  0
    6.3431  -31.6424  -86.7519 O   0  0  0  0  0  0  0  0  0  0  0  0
    7.5233  -32.8577  -84.8086 O   0  0  0  0  0  0  0  0  0  0  0  0
    2.4057  -29.1638  -85.8740 C   0  0  1  0  0  0  0  0  0  0  0  0
    3.0784  -28.1059  -86.5055 C   0  0  2  0  0  0  0  0  0  0  0  0
    4.0713  -27.9982  -87.6364 C   0  0  0  0  0  0  0  0  0  0  0  0
    5.2430  -28.9667  -87.4431 C   0  0  0  0  0  0  0  0  0  0  0  0
    4.9503  -30.1985  -88.0912 O   0  0  0  0  0  0  0  0  0  0  0  0
  1 11  1  0  0  0  0
  3 13  1  6  0  0  0
  3 17  2  0  0  0  0
  3 20  1  0  0  0  0
  3 26  1  0  0  0  0
  4 14  1  6  0  0  0
  4 18  1  0  0  0  0
  4 21  2  0  0  0  0
  4 20  1  0  0  0  0
  5 19  1  0  0  0  0
  5  7  1  0  0  0  0
  6  7  2  0  0  0  0
  6 12  1  0  0  0  0
  7  8  1  0  0  0  0
  8  9  1  0  0  0  0
  8 10  2  0  0  0  0
 10 11  1  0  0  0  0
 11 12  2  0  0  0  0
 15 23  1  0  0  0  0
 15 16  1  0  0  0  0
 16 19  1  0  0  0  0
 19 22  1  0  0  0  0
 22  2  1  1  0  0  0
 22 23  1  0  0  0  0
 23 24  1  1  0  0  0
 24 25  1  0  0  0  0
 25 26  1  0  0  0  0
M  CHG  2  13  -1  18  -1
M  END
>  <CHROM.1>
70.82038874,-36.14155285,110.25406711,65.16308038,129.47737726,91.52904902
170.45304016,168.93068657,3.94285022,-29.94954447,-85.25590478,-2.67688719
0.76967050,-1.21265843

>  <Name>
ligand

>  <RI>
0

>  <Rbt.Current_Directory>
/home/itssahil/PROJECTS/Mol_Feturizer/New_Systems/rnas/2CKY

>  <Rbt.Executable>
rbdock ($Id: //depot/dev/client3/rdock/2013.1/src/exe/rbdock.cxx#4 $)

>  <Rbt.Library>
libRbt.so (2013.1, Build901 2013/11/27)

>  <Rbt.Parameter_File>
/export/apps/rDock/src/rDock_2013.1_src/data/scripts/dock_solv.prm

>  <Rbt.Receptor>
prm/blind_docking_100.prm

>  <SCORE>
-18.2663

>  <SCORE.INTER>
-13.7336

>  <SCORE.INTER.CONST>
1

>  <SCORE.INTER.POLAR>
0

>  <SCORE.INTER.ROT>
8

>  <SCORE.INTER.SOLV>
10.5383

>  <SCORE.INTER.VDW>
-21.6018

>  <SCORE.INTER.norm>
-0.528216

>  <SCORE.INTRA>
-4.53265

>  <SCORE.INTRA.DIHEDRAL>
-8.04179

>  <SCORE.INTRA.DIHEDRAL.0>
16.4846

>  <SCORE.INTRA.POLAR>
0

>  <SCORE.INTRA.POLAR.0>
0

>  <SCORE.INTRA.REPUL>
0

>  <SCORE.INTRA.REPUL.0>
0

>  <SCORE.INTRA.SOLV>
1.83151

>  <SCORE.INTRA.SOLV.lig_0>
-82.6983

>  <SCORE.INTRA.VDW>
-1.42751

>  <SCORE.INTRA.VDW.0>
-2.11466

>  <SCORE.INTRA.norm>
-0.174333

>  <SCORE.RESTR>
0

>  <SCORE.RESTR.CAVITY>
0

>  <SCORE.RESTR.norm>
0

>  <SCORE.SYSTEM>
0

>  <SCORE.SYSTEM.CONST>
0

>  <SCORE.SYSTEM.DIHEDRAL>
0

>  <SCORE.SYSTEM.SOLV>
0

>  <SCORE.SYSTEM.norm>
0

>  <SCORE.heavy>
26

>  <SCORE.norm>
-0.702548

>  <RMSD>
17.139

$$$$
ligand
 OpenBabel11021811423D
libRbt.so/2013.1/901 2013/11/27
 26 27  0  0  0  0  0  0  0  0999 V2000
    8.9735  -23.7537  -81.8409 C   0  0  0  0  0  0  0  0  0  0  0  0
    5.7074  -28.8418  -84.9766 C   0  0  0  0  0  0  0  0  0  0  0  0
    3.7856  -32.0880  -87.1022 P   0  0  2  0  0  0  0  0  0  0  0  0
    5.0895  -33.9581  -85.5297 P   0  0  2  0  0  0  0  0  0  0  0  0
    4.4086  -27.1200  -82.6744 C   0  0  0  0  0  0  0  0  0  0  0  0
    6.2822  -25.7111  -83.4898 C   0  0  0  0  0  0  0  0  0  0  0  0
    5.6136  -26.2632  -82.4049 C   0  0  0  0  0  0  0  0  0  0  0  0
    6.0537  -25.9564  -81.1140 C   0  0  0  0  0  0  0  0  0  0  0  0
    5.4846  -26.4157  -79.9991 N   0  0  0  0  0  0  0  0  0  0  0  0
    7.1419  -25.1372  -80.9590 N   0  0  0  0  0  0  0  0  0  0  0  0
    7.7916  -24.6245  -82.0464 C   0  0  0  0  0  0  0  0  0  0  0  0
    7.3777  -24.8936  -83.3117 N   0  0  0  0  0  0  0  0  0  0  0  0
    2.3740  -32.3002  -86.5919 O   0  5  0  0  0  0  0  0  0  0  0  0
    5.7846  -33.9666  -84.1868 O   0  0  0  0  0  0  0  0  0  0  0  0
    2.7151  -26.6108  -86.1731 S   0  0  0  0  0  0  0  0  0  0  0  0
    2.9701  -26.4233  -84.5744 C   0  0  0  0  0  0  0  0  0  0  0  0
    3.9057  -32.9079  -88.3841 O   0  0  0  0  0  0  0  0  0  0  0  0
    5.9776  -34.5106  -86.6260 O   0  5  0  0  0  0  0  0  0  0  0  0
    4.0046  -27.1809  -84.0588 N   0  0  0  0  0  0  0  0  0  0  0  0
    4.7900  -32.4337  -85.8866 O   0  0  0  0  0  0  0  0  0  0  0  0
    3.8181  -34.7737  -85.4111 O   0  0  0  0  0  0  0  0  0  0  0  0
    4.5642  -27.9120  -85.0775 C   0  0  1  0  0  0  0  0  0  0  0  0
    3.9155  -27.6572  -86.2960 C   0  0  2  0  0  0  0  0  0  0  0  0
    4.0890  -28.1357  -87.7163 C   0  0  0  0  0  0  0  0  0  0  0  0
    3.4434  -29.5099  -87.9239 C   0  0  0  0  0  0  0  0  0  0  0  0
    4.1016  -30.4701  -87.1068 O   0  0  0  0  0  0  0  0  0  0  0  0
  1 11  1  0  0  0  0
  3 13  1  1  0  0  0
  3 17  2  0  0  0  0
  3 20  1  0  0  0  0
  3 26  1  0  0  0  0
  4 14  1  1  0  0  0
  4 18  1  0  0  0  0
  4 21  2  0  0  0  0
  4 20  1  0  0  0  0
  5 19  1  0  0  0  0
  5  7  1  0  0  0  0
  6  7  2  0  0  0  0
  6 12  1  0  0  0  0
  7  8  1  0  0  0  0
  8  9  1  0  0  0  0
  8 10  2  0  0  0  0
 10 11  1  0  0  0  0
 11 12  2  0  0  0  0
 15 23  1  0  0  0  0
 15 16  1  0  0  0  0
 16 19  1  0  0  0  0
 19 22  1  0  0  0  0
 22  2  1  6  0  0  0
 22 23  1  0  0  0  0
 23 24  1  6  0  0  0
 24 25  1  0  0  0  0
 25 26  1  0  0  0  0
M  CHG  2  13  -1  18  -1
M  END
>  <CHROM.1>
77.56014100,-99.50687998,-5.17336932,-167.27070753,-99.82970476,-63.33332050
-175.70260169,-65.19718765,4.84187628,-29.28426561,-84.95532463,-1.20595139
0.89773337,-2.94644274

>  <Name>
ligand

>  <RI>
0

>  <Rbt.Current_Directory>
/home/itssahil/PROJECTS/Mol_Feturizer/New_Systems/rnas/2CKY

>  <Rbt.Executable>
rbdock ($Id: //depot/dev/client3/rdock/2013.1/src/exe/rbdock.cxx#4 $)

>  <Rbt.Library>
libRbt.so (2013.1, Build901 2013/11/27)

>  <Rbt.Parameter_File>
/export/apps/rDock/src/rDock_2013.1_src/data/scripts/dock_solv.prm

>  <Rbt.Receptor>
prm/blind_docking_100.prm

>  <SCORE>
-18.7227

>  <SCORE.INTER>
-12.1582

>  <SCORE.INTER.CONST>
1

>  <SCORE.INTER.POLAR>
0

>  <SCORE.INTER.ROT>
8

>  <SCORE.INTER.SOLV>
12.4139

>  <SCORE.INTER.VDW>
-21.1768

>  <SCORE.INTER.norm>
-0.467625

>  <SCORE.INTRA>
-6.56446

>  <SCORE.INTRA.DIHEDRAL>
-11.0212

>  <SCORE.INTRA.DIHEDRAL.0>
16.4846

>  <SCORE.INTRA.POLAR>
0

>  <SCORE.INTRA.POLAR.0>
0

>  <SCORE.INTRA.REPUL>
0

>  <SCORE.INTRA.REPUL.0>
0

>  <SCORE.INTRA.SOLV>
1.75603

>  <SCORE.INTRA.SOLV.lig_0>
-82.6983

>  <SCORE.INTRA.VDW>
-1.9319

>  <SCORE.INTRA.VDW.0>
-2.11466

>  <SCORE.INTRA.norm>
-0.252479

>  <SCORE.RESTR>
0

>  <SCORE.RESTR.CAVITY>
0

>  <SCORE.RESTR.norm>
0

>  <SCORE.SYSTEM>
0

>  <SCORE.SYSTEM.CONST>
0

>  <SCORE.SYSTEM.DIHEDRAL>
0

>  <SCORE.SYSTEM.SOLV>
0

>  <SCORE.SYSTEM.norm>
0

>  <SCORE.heavy>
26

>  <SCORE.norm>
-0.720104

>  <RMSD>
17.205

$$$$
ligand
 OpenBabel11021811423D
libRbt.so/2013.1/901 2013/11/27
 26 27  0  0  0  0  0  0  0  0999 V2000
    3.9068  -30.0402  -79.8325 C   0  0  0  0  0  0  0  0  0  0  0  0
    5.8563  -28.9075  -84.9475 C   0  0  0  0  0  0  0  0  0  0  0  0
    4.6065  -33.0620  -86.1284 P   0  0  2  0  0  0  0  0  0  0  0  0
    2.3831  -31.5919  -85.3763 P   0  0  2  0  0  0  0  0  0  0  0  0
    3.6643  -26.6883  -84.4770 C   0  0  0  0  0  0  0  0  0  0  0  0
    2.8844  -28.6002  -83.0996 C   0  0  0  0  0  0  0  0  0  0  0  0
    3.7516  -27.5232  -83.2303 C   0  0  0  0  0  0  0  0  0  0  0  0
    4.6997  -27.2951  -82.2287 C   0  0  0  0  0  0  0  0  0  0  0  0
    5.5903  -26.3031  -82.2515 N   0  0  0  0  0  0  0  0  0  0  0  0
    4.7316  -28.1283  -81.1404 N   0  0  0  0  0  0  0  0  0  0  0  0
    3.8524  -29.1684  -81.0302 C   0  0  0  0  0  0  0  0  0  0  0  0
    2.9303  -29.4227  -81.9945 N   0  0  0  0  0  0  0  0  0  0  0  0
    4.9488  -34.1121  -87.1667 O   0  5  0  0  0  0  0  0  0  0  0  0
    2.8083  -30.2500  -85.9287 O   0  0  0  0  0  0  0  0  0  0  0  0
    3.7915  -28.0251  -88.1601 S   0  0  0  0  0  0  0  0  0  0  0  0
    3.2797  -27.1457  -86.8869 C   0  0  0  0  0  0  0  0  0  0  0  0
    5.0632  -33.6233  -84.7844 O   0  0  0  0  0  0  0  0  0  0  0  0
    2.9057  -31.8127  -83.9714 O   0  5  0  0  0  0  0  0  0  0  0  0
    3.9466  -27.3965  -85.7026 N   0  0  0  0  0  0  0  0  0  0  0  0
    3.0422  -32.7058  -86.3069 O   0  0  0  0  0  0  0  0  0  0  0  0
    0.8694  -31.6563  -85.3990 O   0  0  0  0  0  0  0  0  0  0  0  0
    4.9036  -28.3542  -85.9313 C   0  0  1  0  0  0  0  0  0  0  0  0
    4.8968  -28.7628  -87.2742 C   0  0  2  0  0  0  0  0  0  0  0  0
    5.7015  -29.7402  -88.0949 C   0  0  0  0  0  0  0  0  0  0  0  0
    5.1160  -31.1538  -88.0094 C   0  0  0  0  0  0  0  0  0  0  0  0
    5.1577  -31.6022  -86.6603 O   0  0  0  0  0  0  0  0  0  0  0  0
  1 11  1  0  0  0  0
  3 13  1  6  0  0  0
  3 17  2  0  0  0  0
  3 20  1  0  0  0  0
  3 26  1  0  0  0  0
  4 14  1  6  0  0  0
  4 18  1  0  0  0  0
  4 21  2  0  0  0  0
  4 20  1  0  0  0  0
  5 19  1  0  0  0  0
  5  7  1  0  0  0  0
  6  7  2  0  0  0  0
  6 12  1  0  0  0  0
  7  8  1  0  0  0  0
  8  9  1  0  0  0  0
  8 10  2  0  0  0  0
 10 11  1  0  0  0  0
 11 12  2  0  0  0  0
 15 23  1  0  0  0  0
 15 16  1  0  0  0  0
 16 19  1  0  0  0  0
 19 22  1  0  0  0  0
 22  2  1  6  0  0  0
 22 23  1  0  0  0  0
 23 24  1  6  0  0  0
 24 25  1  0  0  0  0
 25 26  1  0  0  0  0
M  CHG  2  13  -1  18  -1
M  END
>  <CHROM.1>
-178.32551835,143.36046380,-61.85975752,77.62386803,-93.92874593,-61.66882223
179.11357506,38.50397357,3.98105904,-30.00668129,-85.10161523,1.56894219
1.42026222,0.80057040

>  <Name>
ligand

>  <RI>
0

>  <Rbt.Current_Directory>
/home/itssahil/PROJECTS/Mol_Feturizer/New_Systems/rnas/2CKY

>  <Rbt.Executable>
rbdock ($Id: //depot/dev/client3/rdock/2013.1/src/exe/rbdock.cxx#4 $)

>  <Rbt.Library>
libRbt.so (2013.1, Build901 2013/11/27)

>  <Rbt.Parameter_File>
/export/apps/rDock/src/rDock_2013.1_src/data/scripts/dock_solv.prm

>  <Rbt.Receptor>
prm/blind_docking_100.prm

>  <SCORE>
-18.5717

>  <SCORE.INTER>
-9.97685

>  <SCORE.INTER.CONST>
1

>  <SCORE.INTER.POLAR>
0

>  <SCORE.INTER.ROT>
8

>  <SCORE.INTER.SOLV>
10.0656

>  <SCORE.INTER.VDW>
-18.9398

>  <SCORE.INTER.norm>
-0.383725

>  <SCORE.INTRA>
-8.59482

>  <SCORE.INTRA.DIHEDRAL>
-10.7853

>  <SCORE.INTRA.DIHEDRAL.0>
16.4846

>  <SCORE.INTRA.POLAR>
0

>  <SCORE.INTRA.POLAR.0>
0

>  <SCORE.INTRA.REPUL>
0

>  <SCORE.INTRA.REPUL.0>
0

>  <SCORE.INTRA.SOLV>
1.57882

>  <SCORE.INTRA.SOLV.lig_0>
-82.6983

>  <SCORE.INTRA.VDW>
-3.99159

>  <SCORE.INTRA.VDW.0>
-2.11466

>  <SCORE.INTRA.norm>
-0.33057

>  <SCORE.RESTR>
0

>  <SCORE.RESTR.CAVITY>
0

>  <SCORE.RESTR.norm>
0

>  <SCORE.SYSTEM>
0

>  <SCORE.SYSTEM.CONST>
0

>  <SCORE.SYSTEM.DIHEDRAL>
0

>  <SCORE.SYSTEM.SOLV>
0

>  <SCORE.SYSTEM.norm>
0

>  <SCORE.heavy>
26

>  <SCORE.norm>
-0.714295

>  <RMSD>
17.341

$$$$
ligand
 OpenBabel11021811423D
libRbt.so/2013.1/901 2013/11/27
 26 27  0  0  0  0  0  0  0  0999 V2000
    5.8537  -23.6759  -81.2512 C   0  0  0  0  0  0  0  0  0  0  0  0
    1.6165  -28.2976  -79.3985 C   0  0  0  0  0  0  0  0  0  0  0  0
   -0.0978  -27.8708  -84.5209 P   0  0  2  0  0  0  0  0  0  0  0  0
    2.5528  -27.2611  -85.0438 P   0  0  2  0  0  0  0  0  0  0  0  0
    4.6880  -29.0094  -79.5019 C   0  0  0  0  0  0  0  0  0  0  0  0
    4.6843  -27.2005  -81.2015 C   0  0  0  0  0  0  0  0  0  0  0  0
    5.0360  -27.6088  -79.9214 C   0  0  0  0  0  0  0  0  0  0  0  0
    5.6457  -26.6887  -79.0636 C   0  0  0  0  0  0  0  0  0  0  0  0
    6.0151  -26.9617  -77.8118 N   0  0  0  0  0  0  0  0  0  0  0  0
    5.8954  -25.4195  -79.5178 N   0  0  0  0  0  0  0  0  0  0  0  0
    5.5555  -25.0526  -80.7895 C   0  0  0  0  0  0  0  0  0  0  0  0
    4.9490  -25.9208  -81.6399 N   0  0  0  0  0  0  0  0  0  0  0  0
   -1.2320  -28.5494  -85.2632 O   0  5  0  0  0  0  0  0  0  0  0  0
    2.1281  -25.8112  -84.9806 O   0  0  0  0  0  0  0  0  0  0  0  0
    2.4709  -31.2428  -81.8397 S   0  0  0  0  0  0  0  0  0  0  0  0
    3.8227  -30.6718  -81.1307 C   0  0  0  0  0  0  0  0  0  0  0  0
   -0.5440  -26.4310  -84.2802 O   0  0  0  0  0  0  0  0  0  0  0  0
    3.5495  -27.5071  -86.1581 O   0  5  0  0  0  0  0  0  0  0  0  0
    3.6200  -29.6211  -80.2560 N   0  0  0  0  0  0  0  0  0  0  0  0
    1.2474  -28.1119  -85.3802 O   0  0  0  0  0  0  0  0  0  0  0  0
    3.1472  -27.6403  -83.7026 O   0  0  0  0  0  0  0  0  0  0  0  0
    2.2775  -29.3356  -80.2154 C   0  0  1  0  0  0  0  0  0  0  0  0
    1.5547  -30.1909  -81.0619 C   0  0  2  0  0  0  0  0  0  0  0  0
    0.0969  -30.3624  -81.4113 C   0  0  0  0  0  0  0  0  0  0  0  0
   -0.4544  -29.1231  -82.1244 C   0  0  0  0  0  0  0  0  0  0  0  0
    0.3511  -28.8333  -83.2601 O   0  0  0  0  0  0  0  0  0  0  0  0
  1 11  1  0  0  0  0
  3 13  1  6  0  0  0
  3 17  2  0  0  0  0
  3 20  1  0  0  0  0
  3 26  1  0  0  0  0
  4 14  1  1  0  0  0
  4 18  1  0  0  0  0
  4 21  2  0  0  0  0
  4 20  1  0  0  0  0
  5 19  1  0  0  0  0
  5  7  1  0  0  0  0
  6  7  2  0  0  0  0
  6 12  1  0  0  0  0
  7  8  1  0  0  0  0
  8  9  1  0  0  0  0
  8 10  2  0  0  0  0
 10 11  1  0  0  0  0
 11 12  2  0  0  0  0
 15 23  1  0  0  0  0
 15 16  1  0  0  0  0
 16 19  1  0  0  0  0
 19 22  1  0  0  0  0
 22  2  1  1  0  0  0
 22 23  1  0  0  0  0
 23 24  1  1  0  0  0
 24 25  1  0  0  0  0
 25 26  1  0  0  0  0
M  CHG  2  13  -1  18  -1
M  END
>  <CHROM.1>
166.61529710,110.70102610,-21.69997137,-49.46956094,-115.94477062,54.80905790
162.27637082,-66.74238137,2.62217785,-27.95606415,-82.30909453,-0.38232822
-0.72152021,-0.83106958

>  <Name>
ligand

>  <RI>
0

>  <Rbt.Current_Directory>
/home/itssahil/PROJECTS/Mol_Feturizer/New_Systems/rnas/2CKY

>  <Rbt.Executable>
rbdock ($Id: //depot/dev/client3/rdock/2013.1/src/exe/rbdock.cxx#4 $)

>  <Rbt.Library>
libRbt.so (2013.1, Build901 2013/11/27)

>  <Rbt.Parameter_File>
/export/apps/rDock/src/rDock_2013.1_src/data/scripts/dock_solv.prm

>  <Rbt.Receptor>
prm/blind_docking_100.prm

>  <SCORE>
-19.8994

>  <SCORE.INTER>
-12.2768

>  <SCORE.INTER.CONST>
1

>  <SCORE.INTER.POLAR>
0

>  <SCORE.INTER.ROT>
8

>  <SCORE.INTER.SOLV>
22.7132

>  <SCORE.INTER.VDW>
-24.6889

>  <SCORE.INTER.norm>
-0.472184

>  <SCORE.INTRA>
-7.62265

>  <SCORE.INTRA.DIHEDRAL>
-9.58729

>  <SCORE.INTRA.DIHEDRAL.0>
16.4846

>  <SCORE.INTRA.POLAR>
0

>  <SCORE.INTRA.POLAR.0>
0

>  <SCORE.INTRA.REPUL>
0

>  <SCORE.INTRA.REPUL.0>
0

>  <SCORE.INTRA.SOLV>
0.0865372

>  <SCORE.INTRA.SOLV.lig_0>
-82.6983

>  <SCORE.INTRA.VDW>
-2.87227

>  <SCORE.INTRA.VDW.0>
-2.11466

>  <SCORE.INTRA.norm>
-0.293179

>  <SCORE.RESTR>
0

>  <SCORE.RESTR.CAVITY>
0

>  <SCORE.RESTR.norm>
0

>  <SCORE.SYSTEM>
0

>  <SCORE.SYSTEM.CONST>
0

>  <SCORE.SYSTEM.DIHEDRAL>
0

>  <SCORE.SYSTEM.SOLV>
0

>  <SCORE.SYSTEM.norm>
0

>  <SCORE.heavy>
26

>  <SCORE.norm>
-0.765362

>  <RMSD>
17.381

$$$$
ligand
 OpenBabel11021811423D
libRbt.so/2013.1/901 2013/11/27
 26 27  0  0  0  0  0  0  0  0999 V2000
   -1.4280  -29.9459  -80.5765 C   0  0  0  0  0  0  0  0  0  0  0  0
    4.7964  -27.2171  -80.5532 C   0  0  0  0  0  0  0  0  0  0  0  0
    3.2805  -26.9769  -85.3118 P   0  0  2  0  0  0  0  0  0  0  0  0
    4.3598  -28.8096  -87.0858 P   0  0  2  0  0  0  0  0  0  0  0  0
    4.2115  -30.1564  -79.5685 C   0  0  0  0  0  0  0  0  0  0  0  0
    2.1992  -30.6606  -80.9310 C   0  0  0  0  0  0  0  0  0  0  0  0
    2.7302  -30.0535  -79.8004 C   0  0  0  0  0  0  0  0  0  0  0  0
    1.8631  -29.4233  -78.9029 C   0  0  0  0  0  0  0  0  0  0  0  0
    2.2551  -28.8199  -77.7804 N   0  0  0  0  0  0  0  0  0  0  0  0
    0.5198  -29.4067  -79.1758 N   0  0  0  0  0  0  0  0  0  0  0  0
    0.0288  -29.9958  -80.3068 C   0  0  0  0  0  0  0  0  0  0  0  0
    0.8455  -30.6278  -81.1890 N   0  0  0  0  0  0  0  0  0  0  0  0
    2.1475  -27.9625  -85.1050 O   0  5  0  0  0  0  0  0  0  0  0  0
    5.5025  -29.1711  -86.1638 O   0  0  0  0  0  0  0  0  0  0  0  0
    6.4915  -29.9832  -82.7528 S   0  0  0  0  0  0  0  0  0  0  0  0
    5.6574  -30.6551  -81.5244 C   0  0  0  0  0  0  0  0  0  0  0  0
    2.6831  -25.5875  -85.1053 O   0  0  0  0  0  0  0  0  0  0  0  0
    4.7801  -28.8407  -88.5411 O   0  5  0  0  0  0  0  0  0  0  0  0
    5.0303  -29.7525  -80.6864 N   0  0  0  0  0  0  0  0  0  0  0  0
    3.9464  -27.3083  -86.7446 O   0  0  0  0  0  0  0  0  0  0  0  0
    3.2241  -29.7814  -86.8374 O   0  0  0  0  0  0  0  0  0  0  0  0
    5.2860  -28.4815  -81.1390 C   0  0  1  0  0  0  0  0  0  0  0  0
    6.0889  -28.5086  -82.2901 C   0  0  2  0  0  0  0  0  0  0  0  0
    6.6637  -27.4628  -83.2134 C   0  0  0  0  0  0  0  0  0  0  0  0
    5.5579  -26.6176  -83.8546 C   0  0  0  0  0  0  0  0  0  0  0  0
    4.5755  -27.4755  -84.4219 O   0  0  0  0  0  0  0  0  0  0  0  0
  1 11  1  0  0  0  0
  3 13  1  1  0  0  0
  3 17  2  0  0  0  0
  3 20  1  0  0  0  0
  3 26  1  0  0  0  0
  4 14  1  1  0  0  0
  4 18  1  0  0  0  0
  4 21  2  0  0  0  0
  4 20  1  0  0  0  0
  5 19  1  0  0  0  0
  5  7  1  0  0  0  0
  6  7  2  0  0  0  0
  6 12  1  0  0  0  0
  7  8  1  0  0  0  0
  8  9  1  0  0  0  0
  8 10  2  0  0  0  0
 10 11  1  0  0  0  0
 11 12  2  0  0  0  0
 15 23  1  0  0  0  0
 15 16  1  0  0  0  0
 16 19  1  0  0  0  0
 19 22  1  0  0  0  0
 22  2  1  6  0  0  0
 22 23  1  0  0  0  0
 23 24  1  6  0  0  0
 24 25  1  0  0  0  0
 25 26  1  0  0  0  0
M  CHG  2  13  -1  18  -1
M  END
>  <CHROM.1>
-50.06529621,-102.87109958,52.20716860,-67.22553532,120.25581742,-50.57043666
-174.85490895,-149.98688251,3.73769245,-28.75029029,-83.13549922,1.90876783
0.02148233,1.79373988

>  <Name>
ligand

>  <RI>
0

>  <Rbt.Current_Directory>
/home/itssahil/PROJECTS/Mol_Feturizer/New_Systems/rnas/2CKY

>  <Rbt.Executable>
rbdock ($Id: //depot/dev/client3/rdock/2013.1/src/exe/rbdock.cxx#4 $)

>  <Rbt.Library>
libRbt.so (2013.1, Build901 2013/11/27)

>  <Rbt.Parameter_File>
/export/apps/rDock/src/rDock_2013.1_src/data/scripts/dock_solv.prm

>  <Rbt.Receptor>
prm/blind_docking_100.prm

>  <SCORE>
-18.9163

>  <SCORE.INTER>
-11.8751

>  <SCORE.INTER.CONST>
1

>  <SCORE.INTER.POLAR>
0

>  <SCORE.INTER.ROT>
8

>  <SCORE.INTER.SOLV>
21.8138

>  <SCORE.INTER.VDW>
-24.1213

>  <SCORE.INTER.norm>
-0.456735

>  <SCORE.INTRA>
-7.04115

>  <SCORE.INTRA.DIHEDRAL>
-9.91704

>  <SCORE.INTRA.DIHEDRAL.0>
16.4846

>  <SCORE.INTRA.POLAR>
0

>  <SCORE.INTRA.POLAR.0>
0

>  <SCORE.INTRA.REPUL>
0

>  <SCORE.INTRA.REPUL.0>
0

>  <SCORE.INTRA.SOLV>
0.178658

>  <SCORE.INTRA.SOLV.lig_0>
-82.6983

>  <SCORE.INTRA.VDW>
-2.17196

>  <SCORE.INTRA.VDW.0>
-2.11466

>  <SCORE.INTRA.norm>
-0.270813

>  <SCORE.RESTR>
0

>  <SCORE.RESTR.CAVITY>
0

>  <SCORE.RESTR.norm>
0

>  <SCORE.SYSTEM>
0

>  <SCORE.SYSTEM.CONST>
0

>  <SCORE.SYSTEM.DIHEDRAL>
0

>  <SCORE.SYSTEM.SOLV>
0

>  <SCORE.SYSTEM.norm>
0

>  <SCORE.heavy>
26

>  <SCORE.norm>
-0.727549

>  <RMSD>
17.449

$$$$
ligand
 OpenBabel11021811423D
libRbt.so/2013.1/901 2013/11/27
 26 27  0  0  0  0  0  0  0  0999 V2000
    0.9007  -29.3098  -76.1637 C   0  0  0  0  0  0  0  0  0  0  0  0
    1.7419  -29.3428  -84.4630 C   0  0  0  0  0  0  0  0  0  0  0  0
    4.4519  -29.5126  -87.7185 P   0  0  2  0  0  0  0  0  0  0  0  0
    5.7286  -31.8678  -87.0158 P   0  0  2  0  0  0  0  0  0  0  0  0
    2.5424  -30.3013  -81.5662 C   0  0  0  0  0  0  0  0  0  0  0  0
    2.9551  -30.2226  -79.1199 C   0  0  0  0  0  0  0  0  0  0  0  0
    2.0575  -30.0512  -80.1658 C   0  0  0  0  0  0  0  0  0  0  0  0
    0.7647  -29.6033  -79.8786 C   0  0  0  0  0  0  0  0  0  0  0  0
   -0.1764  -29.3904  -80.7988 N   0  0  0  0  0  0  0  0  0  0  0  0
    0.4171  -29.3662  -78.5739 N   0  0  0  0  0  0  0  0  0  0  0  0
    1.3163  -29.5627  -77.5640 C   0  0  0  0  0  0  0  0  0  0  0  0
    2.5832  -29.9832  -77.8144 N   0  0  0  0  0  0  0  0  0  0  0  0
    3.3550  -30.2041  -88.5038 O   0  5  0  0  0  0  0  0  0  0  0  0
    6.9126  -31.4281  -87.8473 O   0  0  0  0  0  0  0  0  0  0  0  0
    4.3765  -27.0305  -82.7093 S   0  0  0  0  0  0  0  0  0  0  0  0
    3.9496  -28.2623  -81.7312 C   0  0  0  0  0  0  0  0  0  0  0  0
    5.4742  -29.0300  -88.7441 O   0  0  0  0  0  0  0  0  0  0  0  0
    4.7626  -32.7162  -87.8175 O   0  5  0  0  0  0  0  0  0  0  0  0
    3.0138  -29.1289  -82.2637 N   0  0  0  0  0  0  0  0  0  0  0  0
    4.9503  -30.5458  -86.5826 O   0  0  0  0  0  0  0  0  0  0  0  0
    6.2490  -32.6379  -85.8192 O   0  0  0  0  0  0  0  0  0  0  0  0
    2.6888  -28.7022  -83.5277 C   0  0  1  0  0  0  0  0  0  0  0  0
    3.4019  -27.5416  -83.8667 C   0  0  2  0  0  0  0  0  0  0  0  0
    3.4754  -26.6533  -85.0841 C   0  0  0  0  0  0  0  0  0  0  0  0
    4.3642  -27.2691  -86.1700 C   0  0  0  0  0  0  0  0  0  0  0  0
    3.7529  -28.4535  -86.6662 O   0  0  0  0  0  0  0  0  0  0  0  0
  1 11  1  0  0  0  0
  3 13  1  6  0  0  0
  3 17  2  0  0  0  0
  3 20  1  0  0  0  0
  3 26  1  0  0  0  0
  4 14  1  6  0  0  0
  4 18  1  0  0  0  0
  4 21  2  0  0  0  0
  4 20  1  0  0  0  0
  5 19  1  0  0  0  0
  5  7  1  0  0  0  0
  6  7  2  0  0  0  0
  6 12  1  0  0  0  0
  7  8  1  0  0  0  0
  8  9  1  0  0  0  0
  8 10  2  0  0  0  0
 10 11  1  0  0  0  0
 11 12  2  0  0  0  0
 15 23  1  0  0  0  0
 15 16  1  0  0  0  0
 16 19  1  0  0  0  0
 19 22  1  0  0  0  0
 22  2  1  6  0  0  0
 22 23  1  0  0  0  0
 23 24  1  6  0  0  0
 24 25  1  0  0  0  0
 25 26  1  0  0  0  0
M  CHG  2  13  -1  18  -1
M  END
>  <CHROM.1>
68.07814543,51.51691280,-93.90031828,55.38135010,100.29519629,66.48157422
-172.70666031,-152.69633197,3.57637667,-29.57910406,-83.88941369,-2.73758982
1.14932695,-0.56988167

>  <Name>
ligand

>  <RI>
0

>  <Rbt.Current_Directory>
/home/itssahil/PROJECTS/Mol_Feturizer/New_Systems/rnas/2CKY

>  <Rbt.Executable>
rbdock ($Id: //depot/dev/client3/rdock/2013.1/src/exe/rbdock.cxx#4 $)

>  <Rbt.Library>
libRbt.so (2013.1, Build901 2013/11/27)

>  <Rbt.Parameter_File>
/export/apps/rDock/src/rDock_2013.1_src/data/scripts/dock_solv.prm

>  <Rbt.Receptor>
prm/blind_docking_100.prm

>  <SCORE>
-18.8002

>  <SCORE.INTER>
-12.3179

>  <SCORE.INTER.CONST>
1

>  <SCORE.INTER.POLAR>
0

>  <SCORE.INTER.ROT>
8

>  <SCORE.INTER.SOLV>
10.8775

>  <SCORE.INTER.VDW>
-20.7711

>  <SCORE.INTER.norm>
-0.473767

>  <SCORE.INTRA>
-6.48226

>  <SCORE.INTRA.DIHEDRAL>
-10.1317

>  <SCORE.INTRA.DIHEDRAL.0>
16.4846

>  <SCORE.INTRA.POLAR>
0

>  <SCORE.INTRA.POLAR.0>
0

>  <SCORE.INTRA.REPUL>
0

>  <SCORE.INTRA.REPUL.0>
0

>  <SCORE.INTRA.SOLV>
1.36549

>  <SCORE.INTRA.SOLV.lig_0>
-82.6983

>  <SCORE.INTRA.VDW>
-2.09913

>  <SCORE.INTRA.VDW.0>
-2.11466

>  <SCORE.INTRA.norm>
-0.249318

>  <SCORE.RESTR>
0

>  <SCORE.RESTR.CAVITY>
0

>  <SCORE.RESTR.norm>
0

>  <SCORE.SYSTEM>
0

>  <SCORE.SYSTEM.CONST>
0

>  <SCORE.SYSTEM.DIHEDRAL>
0

>  <SCORE.SYSTEM.SOLV>
0

>  <SCORE.SYSTEM.norm>
0

>  <SCORE.heavy>
26

>  <SCORE.norm>
-0.723084

>  <RMSD>
17.468

$$$$
ligand
 OpenBabel11021811423D
libRbt.so/2013.1/901 2013/11/27
 26 27  0  0  0  0  0  0  0  0999 V2000
    6.7573  -22.4505  -82.2129 C   0  0  0  0  0  0  0  0  0  0  0  0
    7.3693  -28.7517  -82.5149 C   0  0  0  0  0  0  0  0  0  0  0  0
    2.5158  -29.6849  -85.1987 P   0  0  2  0  0  0  0  0  0  0  0  0
    4.2676  -28.6058  -87.0526 P   0  0  2  0  0  0  0  0  0  0  0  0
    7.6960  -27.4883  -79.6429 C   0  0  0  0  0  0  0  0  0  0  0  0
    8.3042  -25.6814  -81.2321 C   0  0  0  0  0  0  0  0  0  0  0  0
    7.4186  -26.1514  -80.2710 C   0  0  0  0  0  0  0  0  0  0  0  0
    6.2846  -25.3916  -79.9696 C   0  0  0  0  0  0  0  0  0  0  0  0
    5.3601  -25.7465  -79.0767 N   0  0  0  0  0  0  0  0  0  0  0  0
    6.0917  -24.1984  -80.6165 N   0  0  0  0  0  0  0  0  0  0  0  0
    6.9911  -23.7524  -81.5437 C   0  0  0  0  0  0  0  0  0  0  0  0
    8.0939  -24.4762  -81.8672 N   0  0  0  0  0  0  0  0  0  0  0  0
    1.4292  -30.7417  -85.2244 O   0  5  0  0  0  0  0  0  0  0  0  0
    4.8243  -28.9826  -88.4071 O   0  0  0  0  0  0  0  0  0  0  0  0
    4.9387  -30.2681  -79.8398 S   0  0  0  0  0  0  0  0  0  0  0  0
    5.8948  -29.1307  -79.1703 C   0  0  0  0  0  0  0  0  0  0  0  0
    1.8181  -28.3601  -84.9023 O   0  0  0  0  0  0  0  0  0  0  0  0
    5.3634  -28.4500  -86.0179 O   0  5  0  0  0  0  0  0  0  0  0  0
    6.7949  -28.5438  -80.0395 N   0  0  0  0  0  0  0  0  0  0  0  0
    3.3396  -29.8131  -86.5810 O   0  0  0  0  0  0  0  0  0  0  0  0
    3.4877  -27.3154  -87.2024 O   0  0  0  0  0  0  0  0  0  0  0  0
    6.6280  -29.0974  -81.2850 C   0  0  1  0  0  0  0  0  0  0  0  0
    5.6115  -30.0654  -81.2741 C   0  0  2  0  0  0  0  0  0  0  0  0
    4.9875  -30.9673  -82.3103 C   0  0  0  0  0  0  0  0  0  0  0  0
    3.6659  -30.3896  -82.8281 C   0  0  0  0  0  0  0  0  0  0  0  0
    3.7435  -30.2214  -84.2383 O   0  0  0  0  0  0  0  0  0  0  0  0
  1 11  1  0  0  0  0
  3 13  1  6  0  0  0
  3 17  2  0  0  0  0
  3 20  1  0  0  0  0
  3 26  1  0  0  0  0
  4 14  1  6  0  0  0
  4 18  1  0  0  0  0
  4 21  2  0  0  0  0
  4 20  1  0  0  0  0
  5 19  1  0  0  0  0
  5  7  1  0  0  0  0
  6  7  2  0  0  0  0
  6 12  1  0  0  0  0
  7  8  1  0  0  0  0
  8  9  1  0  0  0  0
  8 10  2  0  0  0  0
 10 11  1  0  0  0  0
 11 12  2  0  0  0  0
 15 23  1  0  0  0  0
 15 16  1  0  0  0  0
 16 19  1  0  0  0  0
 19 22  1  0  0  0  0
 22  2  1  6  0  0  0
 22 23  1  0  0  0  0
 23 24  1  6  0  0  0
 24 25  1  0  0  0  0
 25 26  1  0  0  0  0
M  CHG  2  13  -1  18  -1
M  END
>  <CHROM.1>
162.76167413,-112.51712494,-108.72471433,-176.31575232,80.35326240,122.09113680
177.34447721,-68.28046116,5.09087908,-28.13929435,-83.04371134,-0.35854801
-1.04533069,-0.92399751

>  <Name>
ligand

>  <RI>
0

>  <Rbt.Current_Directory>
/home/itssahil/PROJECTS/Mol_Feturizer/New_Systems/rnas/2CKY

>  <Rbt.Executable>
rbdock ($Id: //depot/dev/client3/rdock/2013.1/src/exe/rbdock.cxx#4 $)

>  <Rbt.Library>
libRbt.so (2013.1, Build901 2013/11/27)

>  <Rbt.Parameter_File>
/export/apps/rDock/src/rDock_2013.1_src/data/scripts/dock_solv.prm

>  <Rbt.Receptor>
prm/blind_docking_100.prm

>  <SCORE>
-15.083

>  <SCORE.INTER>
-11.5555

>  <SCORE.INTER.CONST>
1

>  <SCORE.INTER.POLAR>
0

>  <SCORE.INTER.ROT>
8

>  <SCORE.INTER.SOLV>
12.9292

>  <SCORE.INTER.VDW>
-20.9468

>  <SCORE.INTER.norm>
-0.444443

>  <SCORE.INTRA>
-3.52749

>  <SCORE.INTRA.DIHEDRAL>
-5.36173

>  <SCORE.INTRA.DIHEDRAL.0>
16.4846

>  <SCORE.INTRA.POLAR>
0

>  <SCORE.INTRA.POLAR.0>
0

>  <SCORE.INTRA.REPUL>
0

>  <SCORE.INTRA.REPUL.0>
0

>  <SCORE.INTRA.SOLV>
2.47029

>  <SCORE.INTRA.SOLV.lig_0>
-82.6983

>  <SCORE.INTRA.VDW>
-2.08177

>  <SCORE.INTRA.VDW.0>
-2.11466

>  <SCORE.INTRA.norm>
-0.135673

>  <SCORE.RESTR>
0

>  <SCORE.RESTR.CAVITY>
0

>  <SCORE.RESTR.norm>
0

>  <SCORE.SYSTEM>
0

>  <SCORE.SYSTEM.CONST>
0

>  <SCORE.SYSTEM.DIHEDRAL>
0

>  <SCORE.SYSTEM.SOLV>
0

>  <SCORE.SYSTEM.norm>
0

>  <SCORE.heavy>
26

>  <SCORE.norm>
-0.580115

>  <RMSD>
17.476

$$$$
ligand
 OpenBabel11021811423D
libRbt.so/2013.1/901 2013/11/27
 26 27  0  0  0  0  0  0  0  0999 V2000
    7.7659  -24.8995  -81.5586 C   0  0  0  0  0  0  0  0  0  0  0  0
    5.5714  -29.6136  -85.1187 C   0  0  0  0  0  0  0  0  0  0  0  0
    6.5968  -32.8141  -87.2654 P   0  0  2  0  0  0  0  0  0  0  0  0
    5.1367  -34.2546  -85.4042 P   0  0  2  0  0  0  0  0  0  0  0  0
    3.4712  -27.3552  -84.4552 C   0  0  0  0  0  0  0  0  0  0  0  0
    5.5660  -26.0298  -84.3291 C   0  0  0  0  0  0  0  0  0  0  0  0
    4.5892  -26.7499  -83.6536 C   0  0  0  0  0  0  0  0  0  0  0  0
    4.6565  -26.8348  -82.2599 C   0  0  0  0  0  0  0  0  0  0  0  0
    3.7709  -27.4857  -81.5049 N   0  0  0  0  0  0  0  0  0  0  0  0
    5.6936  -26.2223  -81.6052 N   0  0  0  0  0  0  0  0  0  0  0  0
    6.6510  -25.5371  -82.2988 C   0  0  0  0  0  0  0  0  0  0  0  0
    6.6033  -25.4257  -83.6516 N   0  0  0  0  0  0  0  0  0  0  0  0
    7.3563  -33.1009  -88.5455 O   0  5  0  0  0  0  0  0  0  0  0  0
    5.0181  -32.8306  -84.9093 O   0  0  0  0  0  0  0  0  0  0  0  0
    3.9515  -27.9849  -88.2946 S   0  0  0  0  0  0  0  0  0  0  0  0
    3.3458  -27.3217  -86.9347 C   0  0  0  0  0  0  0  0  0  0  0  0
    7.5919  -32.1524  -86.3157 O   0  0  0  0  0  0  0  0  0  0  0  0
    5.9635  -35.1092  -84.4652 O   0  5  0  0  0  0  0  0  0  0  0  0
    3.8537  -27.8416  -85.7592 N   0  0  0  0  0  0  0  0  0  0  0  0
    5.9101  -34.1979  -86.7970 O   0  0  0  0  0  0  0  0  0  0  0  0
    3.7401  -34.8230  -85.5532 O   0  0  0  0  0  0  0  0  0  0  0  0
    4.7740  -28.8123  -86.0694 C   0  0  1  0  0  0  0  0  0  0  0  0
    4.9009  -28.9606  -87.4595 C   0  0  2  0  0  0  0  0  0  0  0  0
    5.7384  -29.8278  -88.3668 C   0  0  0  0  0  0  0  0  0  0  0  0
    5.0134  -31.1321  -88.7155 C   0  0  0  0  0  0  0  0  0  0  0  0
    5.1811  -32.0646  -87.6547 O   0  0  0  0  0  0  0  0  0  0  0  0
  1 11  1  0  0  0  0
  3 13  1  6  0  0  0
  3 17  2  0  0  0  0
  3 20  1  0  0  0  0
  3 26  1  0  0  0  0
  4 14  1  1  0  0  0
  4 18  1  0  0  0  0
  4 21  2  0  0  0  0
  4 20  1  0  0  0  0
  5 19  1  0  0  0  0
  5  7  1  0  0  0  0
  6  7  2  0  0  0  0
  6 12  1  0  0  0  0
  7  8  1  0  0  0  0
  8  9  1  0  0  0  0
  8 10  2  0  0  0  0
 10 11  1  0  0  0  0
 11 12  2  0  0  0  0
 15 23  1  0  0  0  0
 15 16  1  0  0  0  0
 16 19  1  0  0  0  0
 19 22  1  0  0  0  0
 22  2  1  6  0  0  0
 22 23  1  0  0  0  0
 23 24  1  6  0  0  0
 24 25  1  0  0  0  0
 25 26  1  0  0  0  0
M  CHG  2  13  -1  18  -1
M  END
>  <CHROM.1>
174.80613930,-117.09733370,35.65210145,9.96064516,-89.10640436,-81.68108031
-69.95028200,-35.81073174,5.34482302,-30.04057698,-85.59577907,-1.76336023
1.36343776,-2.52516452

>  <Name>
ligand

>  <RI>
0

>  <Rbt.Current_Directory>
/home/itssahil/PROJECTS/Mol_Feturizer/New_Systems/rnas/2CKY

>  <Rbt.Executable>
rbdock ($Id: //depot/dev/client3/rdock/2013.1/src/exe/rbdock.cxx#4 $)

>  <Rbt.Library>
libRbt.so (2013.1, Build901 2013/11/27)

>  <Rbt.Parameter_File>
/export/apps/rDock/src/rDock_2013.1_src/data/scripts/dock_solv.prm

>  <Rbt.Receptor>
prm/blind_docking_100.prm

>  <SCORE>
-17.3376

>  <SCORE.INTER>
-12.5741

>  <SCORE.INTER.CONST>
1

>  <SCORE.INTER.POLAR>
0

>  <SCORE.INTER.ROT>
8

>  <SCORE.INTER.SOLV>
21.1396

>  <SCORE.INTER.VDW>
-24.3626

>  <SCORE.INTER.norm>
-0.48362

>  <SCORE.INTRA>
-4.76345

>  <SCORE.INTRA.DIHEDRAL>
-6.14264

>  <SCORE.INTRA.DIHEDRAL.0>
16.4846

>  <SCORE.INTRA.POLAR>
0

>  <SCORE.INTRA.POLAR.0>
0

>  <SCORE.INTRA.REPUL>
0

>  <SCORE.INTRA.REPUL.0>
0

>  <SCORE.INTRA.SOLV>
0.715288

>  <SCORE.INTRA.SOLV.lig_0>
-82.6983

>  <SCORE.INTRA.VDW>
-2.04978

>  <SCORE.INTRA.VDW.0>
-2.11466

>  <SCORE.INTRA.norm>
-0.18321

>  <SCORE.RESTR>
0

>  <SCORE.RESTR.CAVITY>
0

>  <SCORE.RESTR.norm>
0

>  <SCORE.SYSTEM>
0

>  <SCORE.SYSTEM.CONST>
0

>  <SCORE.SYSTEM.DIHEDRAL>
0

>  <SCORE.SYSTEM.SOLV>
0

>  <SCORE.SYSTEM.norm>
0

>  <SCORE.heavy>
26

>  <SCORE.norm>
-0.666829

>  <RMSD>
17.557

$$$$
ligand
 OpenBabel11021811423D
libRbt.so/2013.1/901 2013/11/27
 26 27  0  0  0  0  0  0  0  0999 V2000
    8.5064  -26.4862  -82.1462 C   0  0  0  0  0  0  0  0  0  0  0  0
    4.0268  -31.0988  -82.1791 C   0  0  0  0  0  0  0  0  0  0  0  0
    2.0464  -27.8971  -84.8987 P   0  0  2  0  0  0  0  0  0  0  0  0
    4.1196  -28.7785  -86.5098 P   0  0  2  0  0  0  0  0  0  0  0  0
    5.1072  -30.1704  -79.3645 C   0  0  0  0  0  0  0  0  0  0  0  0
    6.7830  -29.6076  -81.1067 C   0  0  0  0  0  0  0  0  0  0  0  0
    5.9989  -29.1713  -80.0466 C   0  0  0  0  0  0  0  0  0  0  0  0
    6.0309  -27.8183  -79.6961 C   0  0  0  0  0  0  0  0  0  0  0  0
    5.3138  -27.2831  -78.7076 N   0  0  0  0  0  0  0  0  0  0  0  0
    6.8485  -26.9688  -80.3955 N   0  0  0  0  0  0  0  0  0  0  0  0
    7.6236  -27.4312  -81.4215 C   0  0  0  0  0  0  0  0  0  0  0  0
    7.6021  -28.7372  -81.7935 N   0  0  0  0  0  0  0  0  0  0  0  0
    0.6947  -27.3509  -85.3142 O   0  5  0  0  0  0  0  0  0  0  0  0
    4.4348  -27.3445  -86.8713 O   0  0  0  0  0  0  0  0  0  0  0  0
    1.2311  -29.7579  -79.7815 S   0  0  0  0  0  0  0  0  0  0  0  0
    2.6876  -29.7092  -79.0519 C   0  0  0  0  0  0  0  0  0  0  0  0
    2.8919  -26.6906  -84.4994 O   0  0  0  0  0  0  0  0  0  0  0  0
    4.3050  -29.7099  -87.6904 O   0  5  0  0  0  0  0  0  0  0  0  0
    3.7380  -30.1730  -79.8212 N   0  0  0  0  0  0  0  0  0  0  0  0
    2.5780  -28.8265  -86.1069 O   0  0  0  0  0  0  0  0  0  0  0  0
    5.0194  -29.1871  -85.3612 O   0  0  0  0  0  0  0  0  0  0  0  0
    3.2495  -30.5595  -81.0449 C   0  0  1  0  0  0  0  0  0  0  0  0
    1.8619  -30.3608  -81.1192 C   0  0  2  0  0  0  0  0  0  0  0  0
    0.8097  -30.5755  -82.1791 C   0  0  0  0  0  0  0  0  0  0  0  0
    0.6376  -29.3291  -83.0537 C   0  0  0  0  0  0  0  0  0  0  0  0
    1.8054  -29.1405  -83.8435 O   0  0  0  0  0  0  0  0  0  0  0  0
  1 11  1  0  0  0  0
  3 13  1  6  0  0  0
  3 17  2  0  0  0  0
  3 20  1  0  0  0  0
  3 26  1  0  0  0  0
  4 14  1  6  0  0  0
  4 18  1  0  0  0  0
  4 21  2  0  0  0  0
  4 20  1  0  0  0  0
  5 19  1  0  0  0  0
  5  7  1  0  0  0  0
  6  7  2  0  0  0  0
  6 12  1  0  0  0  0
  7  8  1  0  0  0  0
  8  9  1  0  0  0  0
  8 10  2  0  0  0  0
 10 11  1  0  0  0  0
 11 12  2  0  0  0  0
 15 23  1  0  0  0  0
 15 16  1  0  0  0  0
 16 19  1  0  0  0  0
 19 22  1  0  0  0  0
 22  2  1  6  0  0  0
 22 23  1  0  0  0  0
 23 24  1  6  0  0  0
 24 25  1  0  0  0  0
 25 26  1  0  0  0  0
M  CHG  2  13  -1  18  -1
M  END
>  <CHROM.1>
139.92843739,-109.30178116,-96.80828375,-58.08766054,89.56443341,68.48459220
-178.62753628,-22.92270761,3.82269540,-28.81909205,-82.78006967,-1.21744845
-0.29207132,-1.38966895

>  <Name>
ligand

>  <RI>
0

>  <Rbt.Current_Directory>
/home/itssahil/PROJECTS/Mol_Feturizer/New_Systems/rnas/2CKY

>  <Rbt.Executable>
rbdock ($Id: //depot/dev/client3/rdock/2013.1/src/exe/rbdock.cxx#4 $)

>  <Rbt.Library>
libRbt.so (2013.1, Build901 2013/11/27)

>  <Rbt.Parameter_File>
/export/apps/rDock/src/rDock_2013.1_src/data/scripts/dock_solv.prm

>  <Rbt.Receptor>
prm/blind_docking_100.prm

>  <SCORE>
-19.0909

>  <SCORE.INTER>
-13.3733

>  <SCORE.INTER.CONST>
1

>  <SCORE.INTER.POLAR>
0

>  <SCORE.INTER.ROT>
8

>  <SCORE.INTER.SOLV>
14.2484

>  <SCORE.INTER.VDW>
-22.5983

>  <SCORE.INTER.norm>
-0.514356

>  <SCORE.INTRA>
-5.71768

>  <SCORE.INTRA.DIHEDRAL>
-7.72661

>  <SCORE.INTRA.DIHEDRAL.0>
16.4846

>  <SCORE.INTRA.POLAR>
0

>  <SCORE.INTRA.POLAR.0>
0

>  <SCORE.INTRA.REPUL>
0

>  <SCORE.INTRA.REPUL.0>
0

>  <SCORE.INTRA.SOLV>
0.620593

>  <SCORE.INTRA.SOLV.lig_0>
-82.6983

>  <SCORE.INTRA.VDW>
-2.16467

>  <SCORE.INTRA.VDW.0>
-2.11466

>  <SCORE.INTRA.norm>
-0.219911

>  <SCORE.RESTR>
0

>  <SCORE.RESTR.CAVITY>
0

>  <SCORE.RESTR.norm>
0

>  <SCORE.SYSTEM>
0

>  <SCORE.SYSTEM.CONST>
0

>  <SCORE.SYSTEM.DIHEDRAL>
0

>  <SCORE.SYSTEM.SOLV>
0

>  <SCORE.SYSTEM.norm>
0

>  <SCORE.heavy>
26

>  <SCORE.norm>
-0.734266

>  <RMSD>
17.774

$$$$
ligand
 OpenBabel11021811423D
libRbt.so/2013.1/901 2013/11/27
 26 27  0  0  0  0  0  0  0  0999 V2000
   11.5012  -21.9696  -81.3098 C   0  0  0  0  0  0  0  0  0  0  0  0
    5.9832  -28.6275  -79.5152 C   0  0  0  0  0  0  0  0  0  0  0  0
    2.8225  -29.5466  -83.7262 P   0  0  2  0  0  0  0  0  0  0  0  0
    3.3566  -27.3835  -85.3712 P   0  0  2  0  0  0  0  0  0  0  0  0
    7.7734  -26.0423  -79.7664 C   0  0  0  0  0  0  0  0  0  0  0  0
   10.0276  -25.0037  -79.7553 C   0  0  0  0  0  0  0  0  0  0  0  0
    8.7064  -24.9383  -80.1783 C   0  0  0  0  0  0  0  0  0  0  0  0
    8.3154  -23.8843  -81.0093 C   0  0  0  0  0  0  0  0  0  0  0  0
    7.0810  -23.7250  -81.4873 N   0  0  0  0  0  0  0  0  0  0  0  0
    9.2418  -22.9383  -81.3647 N   0  0  0  0  0  0  0  0  0  0  0  0
   10.5302  -23.0185  -80.9167 C   0  0  0  0  0  0  0  0  0  0  0  0
   10.9419  -24.0388  -80.1204 N   0  0  0  0  0  0  0  0  0  0  0  0
    2.2806  -30.9507  -83.9074 O   0  5  0  0  0  0  0  0  0  0  0  0
    3.6449  -27.1441  -86.8362 O   0  0  0  0  0  0  0  0  0  0  0  0
    7.9953  -28.4234  -82.8728 S   0  0  0  0  0  0  0  0  0  0  0  0
    8.2883  -27.1157  -81.9453 C   0  0  0  0  0  0  0  0  0  0  0  0
    1.8259  -28.8147  -82.8312 O   0  0  0  0  0  0  0  0  0  0  0  0
    4.5426  -27.0254  -84.4990 O   0  5  0  0  0  0  0  0  0  0  0  0
    7.6123  -27.0956  -80.7400 N   0  0  0  0  0  0  0  0  0  0  0  0
    3.0978  -28.9470  -85.1995 O   0  0  0  0  0  0  0  0  0  0  0  0
    2.1433  -26.5617  -84.9860 O   0  0  0  0  0  0  0  0  0  0  0  0
    6.8501  -28.2337  -80.6445 C   0  0  1  0  0  0  0  0  0  0  0  0
    7.0018  -29.0390  -81.7842 C   0  0  2  0  0  0  0  0  0  0  0  0
    6.4496  -30.3706  -82.2297 C   0  0  0  0  0  0  0  0  0  0  0  0
    4.9177  -30.3792  -82.1912 C   0  0  0  0  0  0  0  0  0  0  0  0
    4.4125  -29.6509  -83.3036 O   0  0  0  0  0  0  0  0  0  0  0  0
  1 11  1  0  0  0  0
  3 13  1  6  0  0  0
  3 17  2  0  0  0  0
  3 20  1  0  0  0  0
  3 26  1  0  0  0  0
  4 14  1  6  0  0  0
  4 18  1  0  0  0  0
  4 21  2  0  0  0  0
  4 20  1  0  0  0  0
  5 19  1  0  0  0  0
  5  7  1  0  0  0  0
  6  7  2  0  0  0  0
  6 12  1  0  0  0  0
  7  8  1  0  0  0  0
  8  9  1  0  0  0  0
  8 10  2  0  0  0  0
 10 11  1  0  0  0  0
 11 12  2  0  0  0  0
 15 23  1  0  0  0  0
 15 16  1  0  0  0  0
 16 19  1  0  0  0  0
 19 22  1  0  0  0  0
 22  2  1  1  0  0  0
 22 23  1  0  0  0  0
 23 24  1  1  0  0  0
 24 25  1  0  0  0  0
 25 26  1  0  0  0  0
M  CHG  2  13  -1  18  -1
M  END
>  <CHROM.1>
166.22007595,1.73941115,-95.64177220,177.33129545,-125.86620338,76.04623597
173.31101590,-55.78955630,6.06330597,-27.21946851,-82.57468972,0.28975423
-0.68818927,-0.48237670

>  <Name>
ligand

>  <RI>
0

>  <Rbt.Current_Directory>
/home/itssahil/PROJECTS/Mol_Feturizer/New_Systems/rnas/2CKY

>  <Rbt.Executable>
rbdock ($Id: //depot/dev/client3/rdock/2013.1/src/exe/rbdock.cxx#4 $)

>  <Rbt.Library>
libRbt.so (2013.1, Build901 2013/11/27)

>  <Rbt.Parameter_File>
/export/apps/rDock/src/rDock_2013.1_src/data/scripts/dock_solv.prm

>  <Rbt.Receptor>
prm/blind_docking_100.prm

>  <SCORE>
-20.3248

>  <SCORE.INTER>
-14.3002

>  <SCORE.INTER.CONST>
1

>  <SCORE.INTER.POLAR>
0

>  <SCORE.INTER.ROT>
8

>  <SCORE.INTER.SOLV>
13.1264

>  <SCORE.INTER.VDW>
-22.8422

>  <SCORE.INTER.norm>
-0.550007

>  <SCORE.INTRA>
-6.02458

>  <SCORE.INTRA.DIHEDRAL>
-10.2914

>  <SCORE.INTRA.DIHEDRAL.0>
16.4846

>  <SCORE.INTRA.POLAR>
0

>  <SCORE.INTRA.POLAR.0>
0

>  <SCORE.INTRA.REPUL>
0

>  <SCORE.INTRA.REPUL.0>
0

>  <SCORE.INTRA.SOLV>
1.7997

>  <SCORE.INTRA.SOLV.lig_0>
-82.6983

>  <SCORE.INTRA.VDW>
-1.77873

>  <SCORE.INTRA.VDW.0>
-2.11466

>  <SCORE.INTRA.norm>
-0.231715

>  <SCORE.RESTR>
0

>  <SCORE.RESTR.CAVITY>
0

>  <SCORE.RESTR.norm>
0

>  <SCORE.SYSTEM>
0

>  <SCORE.SYSTEM.CONST>
0

>  <SCORE.SYSTEM.DIHEDRAL>
0

>  <SCORE.SYSTEM.SOLV>
0

>  <SCORE.SYSTEM.norm>
0

>  <SCORE.heavy>
26

>  <SCORE.norm>
-0.781721

>  <RMSD>
17.788

$$$$
ligand
 OpenBabel11021811423D
libRbt.so/2013.1/901 2013/11/27
 26 27  0  0  0  0  0  0  0  0999 V2000
    0.6909  -27.9046  -77.5773 C   0  0  0  0  0  0  0  0  0  0  0  0
    2.9762  -31.5087  -81.5679 C   0  0  0  0  0  0  0  0  0  0  0  0
    2.8553  -30.7303  -87.4096 P   0  0  2  0  0  0  0  0  0  0  0  0
    4.2965  -28.3667  -87.4920 P   0  0  2  0  0  0  0  0  0  0  0  0
    5.3310  -30.4921  -79.7313 C   0  0  0  0  0  0  0  0  0  0  0  0
    3.1294  -30.5181  -78.5855 C   0  0  0  0  0  0  0  0  0  0  0  0
    4.1232  -29.7700  -79.2032 C   0  0  0  0  0  0  0  0  0  0  0  0
    3.9851  -28.3800  -79.2589 C   0  0  0  0  0  0  0  0  0  0  0  0
    4.8780  -27.5597  -79.8134 N   0  0  0  0  0  0  0  0  0  0  0  0
    2.8654  -27.8005  -78.7205 N   0  0  0  0  0  0  0  0  0  0  0  0
    1.8948  -28.5646  -78.1363 C   0  0  0  0  0  0  0  0  0  0  0  0
    2.0089  -29.9155  -78.0549 N   0  0  0  0  0  0  0  0  0  0  0  0
    4.1328  -31.4757  -87.7420 O   0  5  0  0  0  0  0  0  0  0  0  0
    5.5558  -29.1649  -87.7446 O   0  0  0  0  0  0  0  0  0  0  0  0
    6.2913  -30.7647  -83.5223 S   0  0  0  0  0  0  0  0  0  0  0  0
    6.4758  -30.4490  -81.9341 C   0  0  0  0  0  0  0  0  0  0  0  0
    2.0413  -30.6782  -88.6998 O   0  0  0  0  0  0  0  0  0  0  0  0
    4.5556  -27.1788  -86.5879 O   0  5  0  0  0  0  0  0  0  0  0  0
    5.3512  -30.6744  -81.1630 N   0  0  0  0  0  0  0  0  0  0  0  0
    3.2826  -29.3307  -86.7280 O   0  0  0  0  0  0  0  0  0  0  0  0
    3.7479  -27.9104  -88.8287 O   0  0  0  0  0  0  0  0  0  0  0  0
    4.3433  -31.1280  -81.9777 C   0  0  1  0  0  0  0  0  0  0  0  0
    4.7740  -31.2162  -83.3108 C   0  0  2  0  0  0  0  0  0  0  0  0
    4.1398  -31.6501  -84.6092 C   0  0  0  0  0  0  0  0  0  0  0  0
    2.6961  -31.1482  -84.7190 C   0  0  0  0  0  0  0  0  0  0  0  0
    2.2138  -31.3797  -86.0369 O   0  0  0  0  0  0  0  0  0  0  0  0
  1 11  1  0  0  0  0
  3 13  1  6  0  0  0
  3 17  2  0  0  0  0
  3 20  1  0  0  0  0
  3 26  1  0  0  0  0
  4 14  1  6  0  0  0
  4 18  1  0  0  0  0
  4 21  2  0  0  0  0
  4 20  1  0  0  0  0
  5 19  1  0  0  0  0
  5  7  1  0  0  0  0
  6  7  2  0  0  0  0
  6 12  1  0  0  0  0
  7  8  1  0  0  0  0
  8  9  1  0  0  0  0
  8 10  2  0  0  0  0
 10 11  1  0  0  0  0
 11 12  2  0  0  0  0
 15 23  1  0  0  0  0
 15 16  1  0  0  0  0
 16 19  1  0  0  0  0
 19 22  1  0  0  0  0
 22  2  1  1  0  0  0
 22 23  1  0  0  0  0
 23 24  1  1  0  0  0
 24 25  1  0  0  0  0
 25 26  1  0  0  0  0
M  CHG  2  13  -1  18  -1
M  END
>  <CHROM.1>
54.04355459,135.48187785,103.33986925,-57.32552276,-139.56308680,170.23585163
-61.38873031,76.21171850,3.85898284,-29.83588172,-83.64365602,1.63407610
-0.60726368,1.55742999

>  <Name>
ligand

>  <RI>
0

>  <Rbt.Current_Directory>
/home/itssahil/PROJECTS/Mol_Feturizer/New_Systems/rnas/2CKY

>  <Rbt.Executable>
rbdock ($Id: //depot/dev/client3/rdock/2013.1/src/exe/rbdock.cxx#4 $)

>  <Rbt.Library>
libRbt.so (2013.1, Build901 2013/11/27)

>  <Rbt.Parameter_File>
/export/apps/rDock/src/rDock_2013.1_src/data/scripts/dock_solv.prm

>  <Rbt.Receptor>
prm/blind_docking_100.prm

>  <SCORE>
-18.2555

>  <SCORE.INTER>
-13.5715

>  <SCORE.INTER.CONST>
1

>  <SCORE.INTER.POLAR>
0

>  <SCORE.INTER.ROT>
8

>  <SCORE.INTER.SOLV>
18.3571

>  <SCORE.INTER.VDW>
-24.1

>  <SCORE.INTER.norm>
-0.52198

>  <SCORE.INTRA>
-4.68397

>  <SCORE.INTRA.DIHEDRAL>
-10.6088

>  <SCORE.INTRA.DIHEDRAL.0>
16.4846

>  <SCORE.INTRA.POLAR>
0

>  <SCORE.INTRA.POLAR.0>
0

>  <SCORE.INTRA.REPUL>
0

>  <SCORE.INTRA.REPUL.0>
0

>  <SCORE.INTRA.SOLV>
1.89017

>  <SCORE.INTRA.SOLV.lig_0>
-82.6983

>  <SCORE.INTRA.VDW>
-0.324666

>  <SCORE.INTRA.VDW.0>
-2.11466

>  <SCORE.INTRA.norm>
-0.180153

>  <SCORE.RESTR>
0

>  <SCORE.RESTR.CAVITY>
0

>  <SCORE.RESTR.norm>
0

>  <SCORE.SYSTEM>
0

>  <SCORE.SYSTEM.CONST>
0

>  <SCORE.SYSTEM.DIHEDRAL>
0

>  <SCORE.SYSTEM.SOLV>
0

>  <SCORE.SYSTEM.norm>
0

>  <SCORE.heavy>
26

>  <SCORE.norm>
-0.702133

>  <RMSD>
17.849

$$$$
ligand
 OpenBabel11021811423D
libRbt.so/2013.1/901 2013/11/27
 26 27  0  0  0  0  0  0  0  0999 V2000
    8.0454  -27.5877  -83.0945 C   0  0  0  0  0  0  0  0  0  0  0  0
    3.0542  -31.4061  -81.5888 C   0  0  0  0  0  0  0  0  0  0  0  0
    0.5394  -28.1507  -84.3021 P   0  0  2  0  0  0  0  0  0  0  0  0
    2.9905  -27.2775  -85.2507 P   0  0  2  0  0  0  0  0  0  0  0  0
    4.8734  -30.3835  -79.2232 C   0  0  0  0  0  0  0  0  0  0  0  0
    6.2549  -30.2907  -81.2831 C   0  0  0  0  0  0  0  0  0  0  0  0
    5.7171  -29.6109  -80.1979 C   0  0  0  0  0  0  0  0  0  0  0  0
    5.9362  -28.2346  -80.0881 C   0  0  0  0  0  0  0  0  0  0  0  0
    5.4604  -27.4764  -79.0999 N   0  0  0  0  0  0  0  0  0  0  0  0
    6.6904  -27.6026  -81.0426 N   0  0  0  0  0  0  0  0  0  0  0  0
    7.2231  -28.3018  -82.0889 C   0  0  0  0  0  0  0  0  0  0  0  0
    7.0147  -29.6365  -82.2291 N   0  0  0  0  0  0  0  0  0  0  0  0
    0.2606  -29.2276  -85.3319 O   0  5  0  0  0  0  0  0  0  0  0  0
    2.2913  -25.9608  -85.5038 O   0  0  0  0  0  0  0  0  0  0  0  0
    1.1038  -29.3673  -78.8680 S   0  0  0  0  0  0  0  0  0  0  0  0
    2.6809  -29.4893  -78.4758 C   0  0  0  0  0  0  0  0  0  0  0  0
   -0.2148  -26.9077  -84.7669 O   0  0  0  0  0  0  0  0  0  0  0  0
    3.0096  -28.1511  -86.4885 O   0  5  0  0  0  0  0  0  0  0  0  0
    3.4496  -30.2023  -79.3763 N   0  0  0  0  0  0  0  0  0  0  0  0
    2.1423  -28.0467  -84.1417 O   0  0  0  0  0  0  0  0  0  0  0  0
    4.4015  -26.9832  -84.7833 O   0  0  0  0  0  0  0  0  0  0  0  0
    2.6430  -30.6269  -80.4032 C   0  0  1  0  0  0  0  0  0  0  0  0
    1.3180  -30.2053  -80.2107 C   0  0  2  0  0  0  0  0  0  0  0  0
    0.0307  -30.3490  -80.9844 C   0  0  0  0  0  0  0  0  0  0  0  0
    0.2619  -30.1688  -82.4885 C   0  0  0  0  0  0  0  0  0  0  0  0
    0.2758  -28.7816  -82.8021 O   0  0  0  0  0  0  0  0  0  0  0  0
  1 11  1  0  0  0  0
  3 13  1  6  0  0  0
  3 17  2  0  0  0  0
  3 20  1  0  0  0  0
  3 26  1  0  0  0  0
  4 14  1  6  0  0  0
  4 18  1  0  0  0  0
  4 21  2  0  0  0  0
  4 20  1  0  0  0  0
  5 19  1  0  0  0  0
  5  7  1  0  0  0  0
  6  7  2  0  0  0  0
  6 12  1  0  0  0  0
  7  8  1  0  0  0  0
  8  9  1  0  0  0  0
  8 10  2  0  0  0  0
 10 11  1  0  0  0  0
 11 12  2  0  0  0  0
 15 23  1  0  0  0  0
 15 16  1  0  0  0  0
 16 19  1  0  0  0  0
 19 22  1  0  0  0  0
 22  2  1  6  0  0  0
 22 23  1  0  0  0  0
 23 24  1  6  0  0  0
 24 25  1  0  0  0  0
 25 26  1  0  0  0  0
M  CHG  2  13  -1  18  -1
M  END
>  <CHROM.1>
77.72061593,-108.44057359,-101.67754172,47.61924305,138.62789110,-82.86528190
178.13293905,20.35106375,3.05340090,-28.73394507,-82.31053221,-0.92759842
-0.15186769,-1.15896818

>  <Name>
ligand

>  <RI>
0

>  <Rbt.Current_Directory>
/home/itssahil/PROJECTS/Mol_Feturizer/New_Systems/rnas/2CKY

>  <Rbt.Executable>
rbdock ($Id: //depot/dev/client3/rdock/2013.1/src/exe/rbdock.cxx#4 $)

>  <Rbt.Library>
libRbt.so (2013.1, Build901 2013/11/27)

>  <Rbt.Parameter_File>
/export/apps/rDock/src/rDock_2013.1_src/data/scripts/dock_solv.prm

>  <Rbt.Receptor>
prm/blind_docking_100.prm

>  <SCORE>
-21.4361

>  <SCORE.INTER>
-16.4928

>  <SCORE.INTER.CONST>
1

>  <SCORE.INTER.POLAR>
0

>  <SCORE.INTER.ROT>
8

>  <SCORE.INTER.SOLV>
17.7406

>  <SCORE.INTER.VDW>
-25.8421

>  <SCORE.INTER.norm>
-0.63434

>  <SCORE.INTRA>
-4.94322

>  <SCORE.INTRA.DIHEDRAL>
-7.97303

>  <SCORE.INTRA.DIHEDRAL.0>
16.4846

>  <SCORE.INTRA.POLAR>
0

>  <SCORE.INTRA.POLAR.0>
0

>  <SCORE.INTRA.REPUL>
0

>  <SCORE.INTRA.REPUL.0>
0

>  <SCORE.INTRA.SOLV>
1.22402

>  <SCORE.INTRA.SOLV.lig_0>
-82.6983

>  <SCORE.INTRA.VDW>
-1.56872

>  <SCORE.INTRA.VDW.0>
-2.11466

>  <SCORE.INTRA.norm>
-0.190124

>  <SCORE.RESTR>
0

>  <SCORE.RESTR.CAVITY>
0

>  <SCORE.RESTR.norm>
0

>  <SCORE.SYSTEM>
0

>  <SCORE.SYSTEM.CONST>
0

>  <SCORE.SYSTEM.DIHEDRAL>
0

>  <SCORE.SYSTEM.SOLV>
0

>  <SCORE.SYSTEM.norm>
0

>  <SCORE.heavy>
26

>  <SCORE.norm>
-0.824464

>  <RMSD>
17.996

$$$$
ligand
 OpenBabel11021811423D
libRbt.so/2013.1/901 2013/11/27
 26 27  0  0  0  0  0  0  0  0999 V2000
    6.4949  -27.3432  -78.4900 C   0  0  0  0  0  0  0  0  0  0  0  0
    3.3879  -29.4996  -83.5171 C   0  0  0  0  0  0  0  0  0  0  0  0
   -0.4813  -29.0249  -80.6684 P   0  0  2  0  0  0  0  0  0  0  0  0
    1.1357  -27.3694  -79.1469 P   0  0  2  0  0  0  0  0  0  0  0  0
    5.1946  -26.9715  -84.0610 C   0  0  0  0  0  0  0  0  0  0  0  0
    4.9086  -26.3112  -81.6856 C   0  0  0  0  0  0  0  0  0  0  0  0
    5.5880  -27.0879  -82.6151 C   0  0  0  0  0  0  0  0  0  0  0  0
    6.5652  -27.9797  -82.1636 C   0  0  0  0  0  0  0  0  0  0  0  0
    7.2715  -28.7835  -82.9592 N   0  0  0  0  0  0  0  0  0  0  0  0
    6.8365  -28.0461  -80.8214 N   0  0  0  0  0  0  0  0  0  0  0  0
    6.1650  -27.2548  -79.9325 C   0  0  0  0  0  0  0  0  0  0  0  0
    5.2007  -26.3899  -80.3407 N   0  0  0  0  0  0  0  0  0  0  0  0
   -1.9851  -29.2156  -80.6484 O   0  5  0  0  0  0  0  0  0  0  0  0
    1.1409  -25.9260  -78.6960 O   0  0  0  0  0  0  0  0  0  0  0  0
    1.4564  -26.5022  -85.1444 S   0  0  0  0  0  0  0  0  0  0  0  0
    3.0203  -26.1146  -84.8994 C   0  0  0  0  0  0  0  0  0  0  0  0
    0.1152  -30.2492  -79.9791 O   0  0  0  0  0  0  0  0  0  0  0  0
    2.3263  -27.6873  -80.0284 O   0  5  0  0  0  0  0  0  0  0  0  0
    3.7813  -27.1114  -84.3185 N   0  0  0  0  0  0  0  0  0  0  0  0
   -0.1753  -27.5739  -80.0304 O   0  0  0  0  0  0  0  0  0  0  0  0
    1.1331  -28.2513  -77.9148 O   0  0  0  0  0  0  0  0  0  0  0  0
    2.9808  -28.2059  -84.1021 C   0  0  1  0  0  0  0  0  0  0  0  0
    1.6677  -27.9633  -84.5351 C   0  0  2  0  0  0  0  0  0  0  0  0
    0.3917  -28.7676  -84.5712 C   0  0  0  0  0  0  0  0  0  0  0  0
    0.1822  -29.5386  -83.2635 C   0  0  0  0  0  0  0  0  0  0  0  0
   -0.0268  -28.6179  -82.1998 O   0  0  0  0  0  0  0  0  0  0  0  0
  1 11  1  0  0  0  0
  3 13  1  6  0  0  0
  3 17  2  0  0  0  0
  3 20  1  0  0  0  0
  3 26  1  0  0  0  0
  4 14  1  1  0  0  0
  4 18  1  0  0  0  0
  4 21  2  0  0  0  0
  4 20  1  0  0  0  0
  5 19  1  0  0  0  0
  5  7  1  0  0  0  0
  6  7  2  0  0  0  0
  6 12  1  0  0  0  0
  7  8  1  0  0  0  0
  8  9  1  0  0  0  0
  8 10  2  0  0  0  0
 10 11  1  0  0  0  0
 11 12  2  0  0  0  0
 15 23  1  0  0  0  0
 15 16  1  0  0  0  0
 16 19  1  0  0  0  0
 19 22  1  0  0  0  0
 22  2  1  6  0  0  0
 22 23  1  0  0  0  0
 23 24  1  6  0  0  0
 24 25  1  0  0  0  0
 25 26  1  0  0  0  0
M  CHG  2  13  -1  18  -1
M  END
>  <CHROM.1>
144.71152724,119.55843302,-50.92924008,-179.88493487,-137.05639134,65.84134738
171.73326267,-81.98457843,2.46595560,-27.84388568,-81.68753082,-0.26467122
0.18240372,1.58776690

>  <Name>
ligand

>  <RI>
0

>  <Rbt.Current_Directory>
/home/itssahil/PROJECTS/Mol_Feturizer/New_Systems/rnas/2CKY

>  <Rbt.Executable>
rbdock ($Id: //depot/dev/client3/rdock/2013.1/src/exe/rbdock.cxx#4 $)

>  <Rbt.Library>
libRbt.so (2013.1, Build901 2013/11/27)

>  <Rbt.Parameter_File>
/export/apps/rDock/src/rDock_2013.1_src/data/scripts/dock_solv.prm

>  <Rbt.Receptor>
prm/blind_docking_100.prm

>  <SCORE>
-20.6399

>  <SCORE.INTER>
-15.0837

>  <SCORE.INTER.CONST>
1

>  <SCORE.INTER.POLAR>
0

>  <SCORE.INTER.ROT>
8

>  <SCORE.INTER.SOLV>
15.3216

>  <SCORE.INTER.VDW>
-24.0964

>  <SCORE.INTER.norm>
-0.580143

>  <SCORE.INTRA>
-5.55614

>  <SCORE.INTRA.DIHEDRAL>
-9.13526

>  <SCORE.INTRA.DIHEDRAL.0>
16.4846

>  <SCORE.INTRA.POLAR>
0

>  <SCORE.INTRA.POLAR.0>
0

>  <SCORE.INTRA.REPUL>
0

>  <SCORE.INTRA.REPUL.0>
0

>  <SCORE.INTRA.SOLV>
2.98079

>  <SCORE.INTRA.SOLV.lig_0>
-82.6983

>  <SCORE.INTRA.VDW>
-2.4789

>  <SCORE.INTRA.VDW.0>
-2.11466

>  <SCORE.INTRA.norm>
-0.213698

>  <SCORE.RESTR>
0

>  <SCORE.RESTR.CAVITY>
0

>  <SCORE.RESTR.norm>
0

>  <SCORE.SYSTEM>
0

>  <SCORE.SYSTEM.CONST>
0

>  <SCORE.SYSTEM.DIHEDRAL>
0

>  <SCORE.SYSTEM.SOLV>
0

>  <SCORE.SYSTEM.norm>
0

>  <SCORE.heavy>
26

>  <SCORE.norm>
-0.793841

>  <RMSD>
18.076

$$$$
ligand
 OpenBabel11021811423D
libRbt.so/2013.1/901 2013/11/27
 26 27  0  0  0  0  0  0  0  0999 V2000
    9.5107  -32.8336  -89.3062 C   0  0  0  0  0  0  0  0  0  0  0  0
    2.5127  -30.6530  -85.6129 C   0  0  0  0  0  0  0  0  0  0  0  0
    5.5173  -28.0079  -82.8272 P   0  0  2  0  0  0  0  0  0  0  0  0
    5.4388  -30.7620  -82.5453 P   0  0  2  0  0  0  0  0  0  0  0  0
    4.0386  -31.4959  -88.2420 C   0  0  0  0  0  0  0  0  0  0  0  0
    6.4336  -31.6363  -87.6058 C   0  0  0  0  0  0  0  0  0  0  0  0
    5.4625  -31.8407  -88.5774 C   0  0  0  0  0  0  0  0  0  0  0  0
    5.8392  -32.4061  -89.7992 C   0  0  0  0  0  0  0  0  0  0  0  0
    4.9950  -32.6604  -90.7994 N   0  0  0  0  0  0  0  0  0  0  0  0
    7.1566  -32.7227  -90.0079 N   0  0  0  0  0  0  0  0  0  0  0  0
    8.0930  -32.4917  -89.0400 C   0  0  0  0  0  0  0  0  0  0  0  0
    7.7538  -31.9573  -87.8383 N   0  0  0  0  0  0  0  0  0  0  0  0
    6.5261  -26.9847  -83.3100 O   0  5  0  0  0  0  0  0  0  0  0  0
    6.0683  -30.9419  -81.1823 O   0  0  0  0  0  0  0  0  0  0  0  0
    3.9162  -27.6207  -87.6619 S   0  0  0  0  0  0  0  0  0  0  0  0
    4.2897  -29.0301  -88.3901 C   0  0  0  0  0  0  0  0  0  0  0  0
    5.2567  -27.6921  -81.3567 O   0  0  0  0  0  0  0  0  0  0  0  0
    5.7401  -31.9298  -83.4624 O   0  5  0  0  0  0  0  0  0  0  0  0
    3.8417  -30.1600  -87.7322 N   0  0  0  0  0  0  0  0  0  0  0  0
    6.1029  -29.4666  -83.1950 O   0  0  0  0  0  0  0  0  0  0  0  0
    3.9436  -30.6009  -82.3599 O   0  0  0  0  0  0  0  0  0  0  0  0
    3.1701  -29.7717  -86.5992 C   0  0  1  0  0  0  0  0  0  0  0  0
    3.1544  -28.3733  -86.4770 C   0  0  2  0  0  0  0  0  0  0  0  0
    2.5740  -27.3967  -85.4842 C   0  0  0  0  0  0  0  0  0  0  0  0
    3.6315  -26.9313  -84.4775 C   0  0  0  0  0  0  0  0  0  0  0  0
    4.2735  -28.0652  -83.9076 O   0  0  0  0  0  0  0  0  0  0  0  0
  1 11  1  0  0  0  0
  3 13  1  6  0  0  0
  3 17  2  0  0  0  0
  3 20  1  0  0  0  0
  3 26  1  0  0  0  0
  4 14  1  1  0  0  0
  4 18  1  0  0  0  0
  4 21  2  0  0  0  0
  4 20  1  0  0  0  0
  5 19  1  0  0  0  0
  5  7  1  0  0  0  0
  6  7  2  0  0  0  0
  6 12  1  0  0  0  0
  7  8  1  0  0  0  0
  8  9  1  0  0  0  0
  8 10  2  0  0  0  0
 10 11  1  0  0  0  0
 11 12  2  0  0  0  0
 15 23  1  0  0  0  0
 15 16  1  0  0  0  0
 16 19  1  0  0  0  0
 19 22  1  0  0  0  0
 22  2  1  6  0  0  0
 22 23  1  0  0  0  0
 23 24  1  6  0  0  0
 24 25  1  0  0  0  0
 25 26  1  0  0  0  0
M  CHG  2  13  -1  18  -1
M  END
>  <CHROM.1>
166.79403469,53.33297865,52.51257746,-83.85135465,-82.16520624,-51.50017615
177.23001917,-45.07962837,5.17923109,-29.95715191,-85.69045776,-1.30050439
-0.81854190,1.30594859

>  <Name>
ligand

>  <RI>
0

>  <Rbt.Current_Directory>
/home/itssahil/PROJECTS/Mol_Feturizer/New_Systems/rnas/2CKY

>  <Rbt.Executable>
rbdock ($Id: //depot/dev/client3/rdock/2013.1/src/exe/rbdock.cxx#4 $)

>  <Rbt.Library>
libRbt.so (2013.1, Build901 2013/11/27)

>  <Rbt.Parameter_File>
/export/apps/rDock/src/rDock_2013.1_src/data/scripts/dock_solv.prm

>  <Rbt.Receptor>
prm/blind_docking_100.prm

>  <SCORE>
-17.291

>  <SCORE.INTER>
-10.722

>  <SCORE.INTER.CONST>
1

>  <SCORE.INTER.POLAR>
0

>  <SCORE.INTER.ROT>
8

>  <SCORE.INTER.SOLV>
7.76946

>  <SCORE.INTER.VDW>
-18.6711

>  <SCORE.INTER.norm>
-0.412383

>  <SCORE.INTRA>
-6.56903

>  <SCORE.INTRA.DIHEDRAL>
-9.4206

>  <SCORE.INTRA.DIHEDRAL.0>
16.4846

>  <SCORE.INTRA.POLAR>
0

>  <SCORE.INTRA.POLAR.0>
0

>  <SCORE.INTRA.REPUL>
0

>  <SCORE.INTRA.REPUL.0>
0

>  <SCORE.INTRA.SOLV>
1.03778

>  <SCORE.INTRA.SOLV.lig_0>
-82.6983

>  <SCORE.INTRA.VDW>
-2.37762

>  <SCORE.INTRA.VDW.0>
-2.11466

>  <SCORE.INTRA.norm>
-0.252655

>  <SCORE.RESTR>
0

>  <SCORE.RESTR.CAVITY>
0

>  <SCORE.RESTR.norm>
0

>  <SCORE.SYSTEM>
0

>  <SCORE.SYSTEM.CONST>
0

>  <SCORE.SYSTEM.DIHEDRAL>
0

>  <SCORE.SYSTEM.SOLV>
0

>  <SCORE.SYSTEM.norm>
0

>  <SCORE.heavy>
26

>  <SCORE.norm>
-0.665038

>  <RMSD>
18.227

$$$$
ligand
 OpenBabel11021811423D
libRbt.so/2013.1/901 2013/11/27
 26 27  0  0  0  0  0  0  0  0999 V2000
    9.9310  -32.8998  -88.3456 C   0  0  0  0  0  0  0  0  0  0  0  0
    2.9747  -30.0419  -84.9726 C   0  0  0  0  0  0  0  0  0  0  0  0
    4.7521  -27.1461  -82.5026 P   0  0  2  0  0  0  0  0  0  0  0  0
    4.8396  -28.8404  -80.3135 P   0  0  2  0  0  0  0  0  0  0  0  0
    4.4495  -31.5964  -87.2877 C   0  0  0  0  0  0  0  0  0  0  0  0
    6.7813  -32.0521  -86.5697 C   0  0  0  0  0  0  0  0  0  0  0  0
    5.8804  -31.9159  -87.6180 C   0  0  0  0  0  0  0  0  0  0  0  0
    6.3276  -32.1343  -88.9244 C   0  0  0  0  0  0  0  0  0  0  0  0
    5.5534  -32.0453  -90.0063 N   0  0  0  0  0  0  0  0  0  0  0  0
    7.6439  -32.4563  -89.1321 N   0  0  0  0  0  0  0  0  0  0  0  0
    8.5115  -32.5640  -88.0819 C   0  0  0  0  0  0  0  0  0  0  0  0
    8.1020  -32.3718  -86.8013 N   0  0  0  0  0  0  0  0  0  0  0  0
    6.1466  -27.5215  -82.9634 O   0  5  0  0  0  0  0  0  0  0  0  0
    6.2919  -29.1364  -80.6131 O   0  0  0  0  0  0  0  0  0  0  0  0
    3.9490  -27.7778  -88.0202 S   0  0  0  0  0  0  0  0  0  0  0  0
    4.4323  -29.3146  -88.2666 C   0  0  0  0  0  0  0  0  0  0  0  0
    4.8885  -25.8193  -81.7604 O   0  0  0  0  0  0  0  0  0  0  0  0
    4.1064  -30.0694  -79.8159 O   0  5  0  0  0  0  0  0  0  0  0  0
    4.1385  -30.1878  -87.2363 N   0  0  0  0  0  0  0  0  0  0  0  0
    4.1611  -28.4097  -81.6902 O   0  0  0  0  0  0  0  0  0  0  0  0
    4.7842  -27.7318  -79.2822 O   0  0  0  0  0  0  0  0  0  0  0  0
    3.4864  -29.4956  -86.2459 C   0  0  1  0  0  0  0  0  0  0  0  0
    3.3297  -28.1449  -86.5945 C   0  0  2  0  0  0  0  0  0  0  0  0
    2.6994  -26.9411  -85.9386 C   0  0  0  0  0  0  0  0  0  0  0  0
    3.6085  -26.3598  -84.8506 C   0  0  0  0  0  0  0  0  0  0  0  0
    3.7225  -27.2913  -83.7819 O   0  0  0  0  0  0  0  0  0  0  0  0
  1 11  1  0  0  0  0
  3 13  1  6  0  0  0
  3 17  2  0  0  0  0
  3 20  1  0  0  0  0
  3 26  1  0  0  0  0
  4 14  1  6  0  0  0
  4 18  1  0  0  0  0
  4 21  2  0  0  0  0
  4 20  1  0  0  0  0
  5 19  1  0  0  0  0
  5  7  1  0  0  0  0
  6  7  2  0  0  0  0
  6 12  1  0  0  0  0
  7  8  1  0  0  0  0
  8  9  1  0  0  0  0
  8 10  2  0  0  0  0
 10 11  1  0  0  0  0
 11 12  2  0  0  0  0
 15 23  1  0  0  0  0
 15 16  1  0  0  0  0
 16 19  1  0  0  0  0
 19 22  1  0  0  0  0
 22  2  1  6  0  0  0
 22 23  1  0  0  0  0
 23 24  1  6  0  0  0
 24 25  1  0  0  0  0
 25 26  1  0  0  0  0
M  CHG  2  13  -1  18  -1
M  END
>  <CHROM.1>
65.81522355,52.75615399,90.71144671,-58.10707929,-102.21313646,-66.50024491
171.87212862,-76.98070068,5.10675562,-29.32863660,-84.90013715,-1.22353898
-0.82062137,1.34613383

>  <Name>
ligand

>  <RI>
0

>  <Rbt.Current_Directory>
/home/itssahil/PROJECTS/Mol_Feturizer/New_Systems/rnas/2CKY

>  <Rbt.Executable>
rbdock ($Id: //depot/dev/client3/rdock/2013.1/src/exe/rbdock.cxx#4 $)

>  <Rbt.Library>
libRbt.so (2013.1, Build901 2013/11/27)

>  <Rbt.Parameter_File>
/export/apps/rDock/src/rDock_2013.1_src/data/scripts/dock_solv.prm

>  <Rbt.Receptor>
prm/blind_docking_100.prm

>  <SCORE>
-19.5729

>  <SCORE.INTER>
-12.707

>  <SCORE.INTER.CONST>
1

>  <SCORE.INTER.POLAR>
0

>  <SCORE.INTER.ROT>
8

>  <SCORE.INTER.SOLV>
11.151

>  <SCORE.INTER.VDW>
-21.1217

>  <SCORE.INTER.norm>
-0.488732

>  <SCORE.INTRA>
-6.86586

>  <SCORE.INTRA.DIHEDRAL>
-10.8935

>  <SCORE.INTRA.DIHEDRAL.0>
16.4846

>  <SCORE.INTRA.POLAR>
0

>  <SCORE.INTRA.POLAR.0>
0

>  <SCORE.INTRA.REPUL>
0

>  <SCORE.INTRA.REPUL.0>
0

>  <SCORE.INTRA.SOLV>
1.20795

>  <SCORE.INTRA.SOLV.lig_0>
-82.6983

>  <SCORE.INTRA.VDW>
-2.02307

>  <SCORE.INTRA.VDW.0>
-2.11466

>  <SCORE.INTRA.norm>
-0.264071

>  <SCORE.RESTR>
0

>  <SCORE.RESTR.CAVITY>
0

>  <SCORE.RESTR.norm>
0

>  <SCORE.SYSTEM>
0

>  <SCORE.SYSTEM.CONST>
0

>  <SCORE.SYSTEM.DIHEDRAL>
0

>  <SCORE.SYSTEM.SOLV>
0

>  <SCORE.SYSTEM.norm>
0

>  <SCORE.heavy>
26

>  <SCORE.norm>
-0.752804

>  <RMSD>
18.238

$$$$
ligand
 OpenBabel11021811423D
libRbt.so/2013.1/901 2013/11/27
 26 27  0  0  0  0  0  0  0  0999 V2000
   -1.8691  -28.4790  -82.9404 C   0  0  0  0  0  0  0  0  0  0  0  0
    3.3071  -27.0375  -79.0391 C   0  0  0  0  0  0  0  0  0  0  0  0
    5.1112  -28.2023  -83.5323 P   0  0  2  0  0  0  0  0  0  0  0  0
    3.1789  -26.9132  -85.0407 P   0  0  2  0  0  0  0  0  0  0  0  0
    1.4126  -29.4620  -78.3438 C   0  0  0  0  0  0  0  0  0  0  0  0
    1.0937  -28.9714  -80.7558 C   0  0  0  0  0  0  0  0  0  0  0  0
    0.5105  -29.1856  -79.5136 C   0  0  0  0  0  0  0  0  0  0  0  0
   -0.8839  -29.1893  -79.4147 C   0  0  0  0  0  0  0  0  0  0  0  0
   -1.5543  -29.3964  -78.2809 N   0  0  0  0  0  0  0  0  0  0  0  0
   -1.6316  -28.9623  -80.5412 N   0  0  0  0  0  0  0  0  0  0  0  0
   -1.0289  -28.7350  -81.7463 C   0  0  0  0  0  0  0  0  0  0  0  0
    0.3232  -28.7400  -81.8751 N   0  0  0  0  0  0  0  0  0  0  0  0
    6.3224  -27.7284  -84.3112 O   0  5  0  0  0  0  0  0  0  0  0  0
    2.5571  -25.5349  -85.0409 O   0  0  0  0  0  0  0  0  0  0  0  0
    5.0976  -30.5221  -79.1594 S   0  0  0  0  0  0  0  0  0  0  0  0
    3.5325  -30.6930  -78.7383 C   0  0  0  0  0  0  0  0  0  0  0  0
    4.7854  -29.5991  -84.0546 O   0  0  0  0  0  0  0  0  0  0  0  0
    2.1279  -28.0043  -85.0679 O   0  5  0  0  0  0  0  0  0  0  0  0
    2.8198  -29.5113  -78.6609 N   0  0  0  0  0  0  0  0  0  0  0  0
    3.9784  -27.0604  -83.6694 O   0  0  0  0  0  0  0  0  0  0  0  0
    4.0924  -27.0219  -86.2446 O   0  0  0  0  0  0  0  0  0  0  0  0
    3.6577  -28.4710  -78.9792 C   0  0  1  0  0  0  0  0  0  0  0  0
    4.9481  -28.9364  -79.2771 C   0  0  2  0  0  0  0  0  0  0  0  0
    6.2444  -28.2881  -79.6965 C   0  0  0  0  0  0  0  0  0  0  0  0
    6.4962  -28.4665  -81.1976 C   0  0  0  0  0  0  0  0  0  0  0  0
    5.3905  -27.9492  -81.9275 O   0  0  0  0  0  0  0  0  0  0  0  0
  1 11  1  0  0  0  0
  3 13  1  6  0  0  0
  3 17  2  0  0  0  0
  3 20  1  0  0  0  0
  3 26  1  0  0  0  0
  4 14  1  6  0  0  0
  4 18  1  0  0  0  0
  4 21  2  0  0  0  0
  4 20  1  0  0  0  0
  5 19  1  0  0  0  0
  5  7  1  0  0  0  0
  6  7  2  0  0  0  0
  6 12  1  0  0  0  0
  7  8  1  0  0  0  0
  8  9  1  0  0  0  0
  8 10  2  0  0  0  0
 10 11  1  0  0  0  0
 11 12  2  0  0  0  0
 15 23  1  0  0  0  0
 15 16  1  0  0  0  0
 16 19  1  0  0  0  0
 19 22  1  0  0  0  0
 22  2  1  6  0  0  0
 22 23  1  0  0  0  0
 23 24  1  6  0  0  0
 24 25  1  0  0  0  0
 25 26  1  0  0  0  0
M  CHG  2  13  -1  18  -1
M  END
>  <CHROM.1>
75.01781725,-104.79399863,-1.68183328,-161.50997401,77.19917910,56.11398187
-167.23656646,-56.68312335,2.98830893,-28.45545696,-81.70899469,2.16522903
-0.01744826,1.92855421

>  <Name>
ligand

>  <RI>
0

>  <Rbt.Current_Directory>
/home/itssahil/PROJECTS/Mol_Feturizer/New_Systems/rnas/2CKY

>  <Rbt.Executable>
rbdock ($Id: //depot/dev/client3/rdock/2013.1/src/exe/rbdock.cxx#4 $)

>  <Rbt.Library>
libRbt.so (2013.1, Build901 2013/11/27)

>  <Rbt.Parameter_File>
/export/apps/rDock/src/rDock_2013.1_src/data/scripts/dock_solv.prm

>  <Rbt.Receptor>
prm/blind_docking_100.prm

>  <SCORE>
-22.9298

>  <SCORE.INTER>
-17.0014

>  <SCORE.INTER.CONST>
1

>  <SCORE.INTER.POLAR>
0

>  <SCORE.INTER.ROT>
8

>  <SCORE.INTER.SOLV>
14.5489

>  <SCORE.INTER.VDW>
-25.1172

>  <SCORE.INTER.norm>
-0.6539

>  <SCORE.INTRA>
-5.92839

>  <SCORE.INTRA.DIHEDRAL>
-9.79793

>  <SCORE.INTRA.DIHEDRAL.0>
16.4846

>  <SCORE.INTRA.POLAR>
0

>  <SCORE.INTRA.POLAR.0>
0

>  <SCORE.INTRA.REPUL>
0

>  <SCORE.INTRA.REPUL.0>
0

>  <SCORE.INTRA.SOLV>
1.8283

>  <SCORE.INTRA.SOLV.lig_0>
-82.6983

>  <SCORE.INTRA.VDW>
-1.94357

>  <SCORE.INTRA.VDW.0>
-2.11466

>  <SCORE.INTRA.norm>
-0.228015

>  <SCORE.RESTR>
0

>  <SCORE.RESTR.CAVITY>
0

>  <SCORE.RESTR.norm>
0

>  <SCORE.SYSTEM>
0

>  <SCORE.SYSTEM.CONST>
0

>  <SCORE.SYSTEM.DIHEDRAL>
0

>  <SCORE.SYSTEM.SOLV>
0

>  <SCORE.SYSTEM.norm>
0

>  <SCORE.heavy>
26

>  <SCORE.norm>
-0.881915

>  <RMSD>
18.323

$$$$
ligand
 OpenBabel11021811423D
libRbt.so/2013.1/901 2013/11/27
 26 27  0  0  0  0  0  0  0  0999 V2000
    9.8999  -32.8175  -88.3567 C   0  0  0  0  0  0  0  0  0  0  0  0
    2.9531  -30.1130  -84.9923 C   0  0  0  0  0  0  0  0  0  0  0  0
    4.3694  -27.5726  -82.1879 P   0  0  2  0  0  0  0  0  0  0  0  0
    3.7086  -28.9743  -79.8925 P   0  0  2  0  0  0  0  0  0  0  0  0
    4.3915  -31.5441  -87.4077 C   0  0  0  0  0  0  0  0  0  0  0  0
    6.7171  -31.9588  -86.6463 C   0  0  0  0  0  0  0  0  0  0  0  0
    5.8300  -31.8571  -87.7101 C   0  0  0  0  0  0  0  0  0  0  0  0
    6.2978  -32.1026  -89.0043 C   0  0  0  0  0  0  0  0  0  0  0  0
    5.5383  -32.0477  -90.0988 N   0  0  0  0  0  0  0  0  0  0  0  0
    7.6200  -32.4163  -89.1857 N   0  0  0  0  0  0  0  0  0  0  0  0
    8.4736  -32.4897  -88.1212 C   0  0  0  0  0  0  0  0  0  0  0  0
    8.0440  -32.2706  -86.8515 N   0  0  0  0  0  0  0  0  0  0  0  0
    5.6579  -28.3355  -82.4241 O   0  5  0  0  0  0  0  0  0  0  0  0
    3.8197  -27.6932  -79.0969 O   0  0  0  0  0  0  0  0  0  0  0  0
    3.9113  -27.6870  -87.9179 S   0  0  0  0  0  0  0  0  0  0  0  0
    4.3806  -29.2106  -88.2561 C   0  0  0  0  0  0  0  0  0  0  0  0
    4.7650  -26.2615  -81.5138 O   0  0  0  0  0  0  0  0  0  0  0  0
    5.0194  -29.7337  -79.9215 O   0  5  0  0  0  0  0  0  0  0  0  0
    4.0915  -30.1386  -87.2735 N   0  0  0  0  0  0  0  0  0  0  0  0
    3.3687  -28.5594  -81.3936 O   0  0  0  0  0  0  0  0  0  0  0  0
    2.6142  -29.8221  -79.2764 O   0  0  0  0  0  0  0  0  0  0  0  0
    3.4551  -29.4991  -86.2384 C   0  0  1  0  0  0  0  0  0  0  0  0
    3.3047  -28.1298  -86.5084 C   0  0  2  0  0  0  0  0  0  0  0  0
    2.6904  -26.9608  -85.7787 C   0  0  0  0  0  0  0  0  0  0  0  0
    3.5433  -26.5448  -84.5754 C   0  0  0  0  0  0  0  0  0  0  0  0
    3.5006  -27.5684  -83.5889 O   0  0  0  0  0  0  0  0  0  0  0  0
  1 11  1  0  0  0  0
  3 13  1  6  0  0  0
  3 17  2  0  0  0  0
  3 20  1  0  0  0  0
  3 26  1  0  0  0  0
  4 14  1  1  0  0  0
  4 18  1  0  0  0  0
  4 21  2  0  0  0  0
  4 20  1  0  0  0  0
  5 19  1  0  0  0  0
  5  7  1  0  0  0  0
  6  7  2  0  0  0  0
  6 12  1  0  0  0  0
  7  8  1  0  0  0  0
  8  9  1  0  0  0  0
  8 10  2  0  0  0  0
 10 11  1  0  0  0  0
 11 12  2  0  0  0  0
 15 23  1  0  0  0  0
 15 16  1  0  0  0  0
 16 19  1  0  0  0  0
 19 22  1  0  0  0  0
 22  2  1  6  0  0  0
 22 23  1  0  0  0  0
 23 24  1  6  0  0  0
 24 25  1  0  0  0  0
 25 26  1  0  0  0  0
M  CHG  2  13  -1  18  -1
M  END
>  <CHROM.1>
68.09465566,55.40252700,85.27498434,57.58473512,-108.36584886,-67.88265904
175.19518809,-93.41883761,4.76740896,-29.42713432,-84.73848979,-1.08923181
-0.83782886,1.53019580

>  <Name>
ligand

>  <RI>
0

>  <Rbt.Current_Directory>
/home/itssahil/PROJECTS/Mol_Feturizer/New_Systems/rnas/2CKY

>  <Rbt.Executable>
rbdock ($Id: //depot/dev/client3/rdock/2013.1/src/exe/rbdock.cxx#4 $)

>  <Rbt.Library>
libRbt.so (2013.1, Build901 2013/11/27)

>  <Rbt.Parameter_File>
/export/apps/rDock/src/rDock_2013.1_src/data/scripts/dock_solv.prm

>  <Rbt.Receptor>
prm/blind_docking_100.prm

>  <SCORE>
-18.9142

>  <SCORE.INTER>
-12.7268

>  <SCORE.INTER.CONST>
1

>  <SCORE.INTER.POLAR>
0

>  <SCORE.INTER.ROT>
8

>  <SCORE.INTER.SOLV>
11.1816

>  <SCORE.INTER.VDW>
-21.1451

>  <SCORE.INTER.norm>
-0.489493

>  <SCORE.INTRA>
-6.18741

>  <SCORE.INTRA.DIHEDRAL>
-10.1837

>  <SCORE.INTRA.DIHEDRAL.0>
16.4846

>  <SCORE.INTRA.POLAR>
0

>  <SCORE.INTRA.POLAR.0>
0

>  <SCORE.INTRA.REPUL>
0

>  <SCORE.INTRA.REPUL.0>
0

>  <SCORE.INTRA.SOLV>
1.30899

>  <SCORE.INTRA.SOLV.lig_0>
-82.6983

>  <SCORE.INTRA.VDW>
-1.75005

>  <SCORE.INTRA.VDW.0>
-2.11466

>  <SCORE.INTRA.norm>
-0.237977

>  <SCORE.RESTR>
0

>  <SCORE.RESTR.CAVITY>
0

>  <SCORE.RESTR.norm>
0

>  <SCORE.SYSTEM>
0

>  <SCORE.SYSTEM.CONST>
0

>  <SCORE.SYSTEM.DIHEDRAL>
0

>  <SCORE.SYSTEM.SOLV>
0

>  <SCORE.SYSTEM.norm>
0

>  <SCORE.heavy>
26

>  <SCORE.norm>
-0.72747

>  <RMSD>
18.391

$$$$
ligand
 OpenBabel11021811423D
libRbt.so/2013.1/901 2013/11/27
 26 27  0  0  0  0  0  0  0  0999 V2000
    6.7674  -22.5138  -82.3785 C   0  0  0  0  0  0  0  0  0  0  0  0
    6.8320  -28.7363  -82.5943 C   0  0  0  0  0  0  0  0  0  0  0  0
    3.5654  -31.9831  -85.0467 P   0  0  2  0  0  0  0  0  0  0  0  0
    1.5416  -30.0977  -84.9047 P   0  0  2  0  0  0  0  0  0  0  0  0
    7.7105  -27.5498  -79.8065 C   0  0  0  0  0  0  0  0  0  0  0  0
    8.2181  -25.8216  -81.5142 C   0  0  0  0  0  0  0  0  0  0  0  0
    7.4394  -26.2103  -80.4319 C   0  0  0  0  0  0  0  0  0  0  0  0
    6.4071  -25.3689  -80.0069 C   0  0  0  0  0  0  0  0  0  0  0  0
    5.5883  -25.6416  -78.9905 N   0  0  0  0  0  0  0  0  0  0  0  0
    6.2078  -24.1789  -80.6578 N   0  0  0  0  0  0  0  0  0  0  0  0
    7.0031  -23.8145  -81.7076 C   0  0  0  0  0  0  0  0  0  0  0  0
    8.0039  -24.6183  -82.1514 N   0  0  0  0  0  0  0  0  0  0  0  0
    4.3973  -31.0014  -85.8481 O   0  5  0  0  0  0  0  0  0  0  0  0
    0.9432  -30.8323  -86.0833 O   0  0  0  0  0  0  0  0  0  0  0  0
    4.8183  -30.1847  -79.5594 S   0  0  0  0  0  0  0  0  0  0  0  0
    5.9331  -29.1101  -79.0508 C   0  0  0  0  0  0  0  0  0  0  0  0
    3.0007  -32.9853  -86.0499 O   0  0  0  0  0  0  0  0  0  0  0  0
    2.3769  -28.9131  -85.3458 O   0  5  0  0  0  0  0  0  0  0  0  0
    6.7009  -28.5509  -80.0548 N   0  0  0  0  0  0  0  0  0  0  0  0
    2.5202  -31.1196  -84.1704 O   0  0  0  0  0  0  0  0  0  0  0  0
    0.4107  -29.6471  -84.0026 O   0  0  0  0  0  0  0  0  0  0  0  0
    6.2948  -29.0699  -81.2595 C   0  0  1  0  0  0  0  0  0  0  0  0
    5.2458  -29.9863  -81.0854 C   0  0  2  0  0  0  0  0  0  0  0  0
    4.4075  -30.8347  -82.0095 C   0  0  0  0  0  0  0  0  0  0  0  0
    5.2847  -31.6639  -82.9535 C   0  0  0  0  0  0  0  0  0  0  0  0
    4.4584  -32.4953  -83.7591 O   0  0  0  0  0  0  0  0  0  0  0  0
  1 11  1  0  0  0  0
  3 13  1  6  0  0  0
  3 17  2  0  0  0  0
  3 20  1  0  0  0  0
  3 26  1  0  0  0  0
  4 14  1  6  0  0  0
  4 18  1  0  0  0  0
  4 21  2  0  0  0  0
  4 20  1  0  0  0  0
  5 19  1  0  0  0  0
  5  7  1  0  0  0  0
  6  7  2  0  0  0  0
  6 12  1  0  0  0  0
  7  8  1  0  0  0  0
  8  9  1  0  0  0  0
  8 10  2  0  0  0  0
 10 11  1  0  0  0  0
 11 12  2  0  0  0  0
 15 23  1  0  0  0  0
 15 16  1  0  0  0  0
 16 19  1  0  0  0  0
 19 22  1  0  0  0  0
 22  2  1  6  0  0  0
 22 23  1  0  0  0  0
 23 24  1  6  0  0  0
 24 25  1  0  0  0  0
 25 26  1  0  0  0  0
M  CHG  2  13  -1  18  -1
M  END
>  <CHROM.1>
55.88984477,-116.01094509,-108.48854894,46.96362849,-128.65510623,177.14829464
75.85717136,41.57574297,4.73661762,-28.96115305,-82.59795637,0.51384005,-0.93307986
-0.30980655

>  <Name>
ligand

>  <RI>
0

>  <Rbt.Current_Directory>
/home/itssahil/PROJECTS/Mol_Feturizer/New_Systems/rnas/2CKY

>  <Rbt.Executable>
rbdock ($Id: //depot/dev/client3/rdock/2013.1/src/exe/rbdock.cxx#4 $)

>  <Rbt.Library>
libRbt.so (2013.1, Build901 2013/11/27)

>  <Rbt.Parameter_File>
/export/apps/rDock/src/rDock_2013.1_src/data/scripts/dock_solv.prm

>  <Rbt.Receptor>
prm/blind_docking_100.prm

>  <SCORE>
-14.1796

>  <SCORE.INTER>
-8.81535

>  <SCORE.INTER.CONST>
1

>  <SCORE.INTER.POLAR>
0

>  <SCORE.INTER.ROT>
8

>  <SCORE.INTER.SOLV>
7.20916

>  <SCORE.INTER.VDW>
-17.2133

>  <SCORE.INTER.norm>
-0.339052

>  <SCORE.INTRA>
-5.36429

>  <SCORE.INTRA.DIHEDRAL>
-10.0413

>  <SCORE.INTRA.DIHEDRAL.0>
16.4846

>  <SCORE.INTRA.POLAR>
0

>  <SCORE.INTRA.POLAR.0>
0

>  <SCORE.INTRA.REPUL>
0

>  <SCORE.INTRA.REPUL.0>
0

>  <SCORE.INTRA.SOLV>
2.28051

>  <SCORE.INTRA.SOLV.lig_0>
-82.6983

>  <SCORE.INTRA.VDW>
-1.48392

>  <SCORE.INTRA.VDW.0>
-2.11466

>  <SCORE.INTRA.norm>
-0.206319

>  <SCORE.RESTR>
0

>  <SCORE.RESTR.CAVITY>
0

>  <SCORE.RESTR.norm>
0

>  <SCORE.SYSTEM>
0

>  <SCORE.SYSTEM.CONST>
0

>  <SCORE.SYSTEM.DIHEDRAL>
0

>  <SCORE.SYSTEM.SOLV>
0

>  <SCORE.SYSTEM.norm>
0

>  <SCORE.heavy>
26

>  <SCORE.norm>
-0.545371

>  <RMSD>
18.406

$$$$
ligand
 OpenBabel11021811423D
libRbt.so/2013.1/901 2013/11/27
 26 27  0  0  0  0  0  0  0  0999 V2000
    1.5784  -28.6929  -77.1072 C   0  0  0  0  0  0  0  0  0  0  0  0
    4.3344  -28.3784  -83.3067 C   0  0  0  0  0  0  0  0  0  0  0  0
    5.7044  -31.4246  -88.4682 P   0  0  2  0  0  0  0  0  0  0  0  0
    7.0398  -33.1150  -86.7276 P   0  0  2  0  0  0  0  0  0  0  0  0
    5.2643  -30.4603  -81.1266 C   0  0  0  0  0  0  0  0  0  0  0  0
    3.4137  -30.8416  -79.5172 C   0  0  0  0  0  0  0  0  0  0  0  0
    4.3022  -29.9435  -80.0942 C   0  0  0  0  0  0  0  0  0  0  0  0
    4.3013  -28.6166  -79.6539 C   0  0  0  0  0  0  0  0  0  0  0  0
    5.1152  -27.6706  -80.1234 N   0  0  0  0  0  0  0  0  0  0  0  0
    3.4117  -28.2387  -78.6817 N   0  0  0  0  0  0  0  0  0  0  0  0
    2.5359  -29.1408  -78.1465 C   0  0  0  0  0  0  0  0  0  0  0  0
    2.5239  -30.4393  -78.5443 N   0  0  0  0  0  0  0  0  0  0  0  0
    4.8858  -31.5536  -89.7376 O   0  5  0  0  0  0  0  0  0  0  0  0
    6.5949  -32.0939  -85.7048 O   0  0  0  0  0  0  0  0  0  0  0  0
    3.6981  -32.1113  -84.3188 S   0  0  0  0  0  0  0  0  0  0  0  0
    4.4060  -32.0245  -82.8533 C   0  0  0  0  0  0  0  0  0  0  0  0
    6.8260  -30.4373  -88.7799 O   0  0  0  0  0  0  0  0  0  0  0  0
    8.4724  -32.8858  -87.1645 O   0  5  0  0  0  0  0  0  0  0  0  0
    4.6781  -30.7423  -82.4151 N   0  0  0  0  0  0  0  0  0  0  0  0
    6.1161  -32.9173  -88.0116 O   0  0  0  0  0  0  0  0  0  0  0  0
    6.8809  -34.4944  -86.1211 O   0  0  0  0  0  0  0  0  0  0  0  0
    4.2547  -29.8519  -83.3709 C   0  0  1  0  0  0  0  0  0  0  0  0
    3.6896  -30.5211  -84.4679 C   0  0  2  0  0  0  0  0  0  0  0  0
    3.0589  -30.0909  -85.7693 C   0  0  0  0  0  0  0  0  0  0  0  0
    4.1150  -29.8966  -86.8625 C   0  0  0  0  0  0  0  0  0  0  0  0
    4.6756  -31.1572  -87.2082 O   0  0  0  0  0  0  0  0  0  0  0  0
  1 11  1  0  0  0  0
  3 13  1  6  0  0  0
  3 17  2  0  0  0  0
  3 20  1  0  0  0  0
  3 26  1  0  0  0  0
  4 14  1  1  0  0  0
  4 18  1  0  0  0  0
  4 21  2  0  0  0  0
  4 20  1  0  0  0  0
  5 19  1  0  0  0  0
  5  7  1  0  0  0  0
  6  7  2  0  0  0  0
  6 12  1  0  0  0  0
  7  8  1  0  0  0  0
  8  9  1  0  0  0  0
  8 10  2  0  0  0  0
 10 11  1  0  0  0  0
 11 12  2  0  0  0  0
 15 23  1  0  0  0  0
 15 16  1  0  0  0  0
 16 19  1  0  0  0  0
 19 22  1  0  0  0  0
 22  2  1  1  0  0  0
 22 23  1  0  0  0  0
 23 24  1  1  0  0  0
 24 25  1  0  0  0  0
 25 26  1  0  0  0  0
M  CHG  2  13  -1  18  -1
M  END
>  <CHROM.1>
177.56467932,-103.83193133,74.48183618,38.72887998,-93.70142972,68.02680843
171.82245660,-81.37784086,4.85661601,-30.93175564,-84.17446379,2.10336714
-0.92934608,1.69006522

>  <Name>
ligand

>  <RI>
0

>  <Rbt.Current_Directory>
/home/itssahil/PROJECTS/Mol_Feturizer/New_Systems/rnas/2CKY

>  <Rbt.Executable>
rbdock ($Id: //depot/dev/client3/rdock/2013.1/src/exe/rbdock.cxx#4 $)

>  <Rbt.Library>
libRbt.so (2013.1, Build901 2013/11/27)

>  <Rbt.Parameter_File>
/export/apps/rDock/src/rDock_2013.1_src/data/scripts/dock_solv.prm

>  <Rbt.Receptor>
prm/blind_docking_100.prm

>  <SCORE>
-13.8242

>  <SCORE.INTER>
-6.17819

>  <SCORE.INTER.CONST>
1

>  <SCORE.INTER.POLAR>
0

>  <SCORE.INTER.ROT>
8

>  <SCORE.INTER.SOLV>
13.0521

>  <SCORE.INTER.VDW>
-17.4028

>  <SCORE.INTER.norm>
-0.237623

>  <SCORE.INTRA>
-7.64605

>  <SCORE.INTRA.DIHEDRAL>
-9.82916

>  <SCORE.INTRA.DIHEDRAL.0>
16.4846

>  <SCORE.INTRA.POLAR>
0

>  <SCORE.INTRA.POLAR.0>
0

>  <SCORE.INTRA.REPUL>
0

>  <SCORE.INTRA.REPUL.0>
0

>  <SCORE.INTRA.SOLV>
0.18954

>  <SCORE.INTRA.SOLV.lig_0>
-82.6983

>  <SCORE.INTRA.VDW>
-2.82624

>  <SCORE.INTRA.VDW.0>
-2.11466

>  <SCORE.INTRA.norm>
-0.294079

>  <SCORE.RESTR>
0

>  <SCORE.RESTR.CAVITY>
0

>  <SCORE.RESTR.norm>
0

>  <SCORE.SYSTEM>
0

>  <SCORE.SYSTEM.CONST>
0

>  <SCORE.SYSTEM.DIHEDRAL>
0

>  <SCORE.SYSTEM.SOLV>
0

>  <SCORE.SYSTEM.norm>
0

>  <SCORE.heavy>
26

>  <SCORE.norm>
-0.531702

>  <RMSD>
18.445

$$$$
ligand
 OpenBabel11021811423D
libRbt.so/2013.1/901 2013/11/27
 26 27  0  0  0  0  0  0  0  0999 V2000
    9.5175  -32.6627  -89.3829 C   0  0  0  0  0  0  0  0  0  0  0  0
    2.7508  -30.2588  -85.2048 C   0  0  0  0  0  0  0  0  0  0  0  0
    4.3213  -27.9444  -82.1492 P   0  0  2  0  0  0  0  0  0  0  0  0
    3.8390  -29.8123  -80.1619 P   0  0  2  0  0  0  0  0  0  0  0  0
    4.1455  -31.5292  -87.7331 C   0  0  0  0  0  0  0  0  0  0  0  0
    6.0609  -31.3072  -89.2959 C   0  0  0  0  0  0  0  0  0  0  0  0
    5.5515  -31.8756  -88.1356 C   0  0  0  0  0  0  0  0  0  0  0  0
    6.3808  -32.6973  -87.3666 C   0  0  0  0  0  0  0  0  0  0  0  0
    6.0072  -33.2858  -86.2300 N   0  0  0  0  0  0  0  0  0  0  0  0
    7.6630  -32.9324  -87.7909 N   0  0  0  0  0  0  0  0  0  0  0  0
    8.1300  -32.3747  -88.9477 C   0  0  0  0  0  0  0  0  0  0  0  0
    7.3518  -31.5609  -89.7071 N   0  0  0  0  0  0  0  0  0  0  0  0
    5.7628  -28.2924  -82.4635 O   0  5  0  0  0  0  0  0  0  0  0  0
    3.1882  -31.1730  -80.0549 O   0  0  0  0  0  0  0  0  0  0  0  0
    3.8751  -27.6209  -87.8770 S   0  0  0  0  0  0  0  0  0  0  0  0
    4.2686  -29.1285  -88.3549 C   0  0  0  0  0  0  0  0  0  0  0  0
    4.3664  -26.7634  -81.1831 O   0  0  0  0  0  0  0  0  0  0  0  0
    3.1936  -28.8055  -79.2317 O   0  5  0  0  0  0  0  0  0  0  0  0
    3.9177  -30.1288  -87.4680 N   0  0  0  0  0  0  0  0  0  0  0  0
    3.5998  -29.3004  -81.6526 O   0  0  0  0  0  0  0  0  0  0  0  0
    5.3126  -29.9647  -79.8438 O   0  0  0  0  0  0  0  0  0  0  0  0
    3.3015  -29.5572  -86.3821 C   0  0  1  0  0  0  0  0  0  0  0  0
    3.2268  -28.1624  -86.5215 C   0  0  2  0  0  0  0  0  0  0  0  0
    2.6645  -27.0367  -85.6890 C   0  0  0  0  0  0  0  0  0  0  0  0
    3.5525  -26.7446  -84.4748 C   0  0  0  0  0  0  0  0  0  0  0  0
    3.4883  -27.8383  -83.5678 O   0  0  0  0  0  0  0  0  0  0  0  0
  1 11  1  0  0  0  0
  3 13  1  6  0  0  0
  3 17  2  0  0  0  0
  3 20  1  0  0  0  0
  3 26  1  0  0  0  0
  4 14  1  1  0  0  0
  4 18  1  0  0  0  0
  4 21  2  0  0  0  0
  4 20  1  0  0  0  0
  5 19  1  0  0  0  0
  5  7  1  0  0  0  0
  6  7  2  0  0  0  0
  6 12  1  0  0  0  0
  7  8  1  0  0  0  0
  8  9  1  0  0  0  0
  8 10  2  0  0  0  0
 10 11  1  0  0  0  0
 11 12  2  0  0  0  0
 15 23  1  0  0  0  0
 15 16  1  0  0  0  0
 16 19  1  0  0  0  0
 19 22  1  0  0  0  0
 22  2  1  6  0  0  0
 22 23  1  0  0  0  0
 23 24  1  6  0  0  0
 24 25  1  0  0  0  0
 25 26  1  0  0  0  0
M  CHG  2  13  -1  18  -1
M  END
>  <CHROM.1>
78.38729819,51.73718197,-61.26776850,-172.90941888,-106.03054063,-68.22970970
178.56342457,-76.50776500,4.69122797,-29.70985684,-84.82963542,-1.01948937
-0.95457957,1.69712278

>  <Name>
ligand

>  <RI>
0

>  <Rbt.Current_Directory>
/home/itssahil/PROJECTS/Mol_Feturizer/New_Systems/rnas/2CKY

>  <Rbt.Executable>
rbdock ($Id: //depot/dev/client3/rdock/2013.1/src/exe/rbdock.cxx#4 $)

>  <Rbt.Library>
libRbt.so (2013.1, Build901 2013/11/27)

>  <Rbt.Parameter_File>
/export/apps/rDock/src/rDock_2013.1_src/data/scripts/dock_solv.prm

>  <Rbt.Receptor>
prm/blind_docking_100.prm

>  <SCORE>
-19.7739

>  <SCORE.INTER>
-13.7244

>  <SCORE.INTER.CONST>
1

>  <SCORE.INTER.POLAR>
0

>  <SCORE.INTER.ROT>
8

>  <SCORE.INTER.SOLV>
8.2501

>  <SCORE.INTER.VDW>
-20.8329

>  <SCORE.INTER.norm>
-0.527861

>  <SCORE.INTRA>
-6.04953

>  <SCORE.INTRA.DIHEDRAL>
-10.8941

>  <SCORE.INTRA.DIHEDRAL.0>
16.4846

>  <SCORE.INTRA.POLAR>
0

>  <SCORE.INTRA.POLAR.0>
0

>  <SCORE.INTRA.REPUL>
0

>  <SCORE.INTRA.REPUL.0>
0

>  <SCORE.INTRA.SOLV>
2.26719

>  <SCORE.INTRA.SOLV.lig_0>
-82.6983

>  <SCORE.INTRA.VDW>
-1.73606

>  <SCORE.INTRA.VDW.0>
-2.11466

>  <SCORE.INTRA.norm>
-0.232674

>  <SCORE.RESTR>
0

>  <SCORE.RESTR.CAVITY>
0

>  <SCORE.RESTR.norm>
0

>  <SCORE.SYSTEM>
0

>  <SCORE.SYSTEM.CONST>
0

>  <SCORE.SYSTEM.DIHEDRAL>
0

>  <SCORE.SYSTEM.SOLV>
0

>  <SCORE.SYSTEM.norm>
0

>  <SCORE.heavy>
26

>  <SCORE.norm>
-0.760535

>  <RMSD>
18.494

$$$$
ligand
 OpenBabel11021811423D
libRbt.so/2013.1/901 2013/11/27
 26 27  0  0  0  0  0  0  0  0999 V2000
    1.1078  -28.0358  -76.3261 C   0  0  0  0  0  0  0  0  0  0  0  0
    6.4207  -30.6530  -82.8291 C   0  0  0  0  0  0  0  0  0  0  0  0
    5.9462  -32.6890  -87.4079 P   0  0  2  0  0  0  0  0  0  0  0  0
    6.5806  -31.3813  -89.7654 P   0  0  2  0  0  0  0  0  0  0  0  0
    4.9456  -29.9484  -80.1312 C   0  0  0  0  0  0  0  0  0  0  0  0
    3.1224  -30.2910  -78.4822 C   0  0  0  0  0  0  0  0  0  0  0  0
    3.9395  -29.3961  -79.1609 C   0  0  0  0  0  0  0  0  0  0  0  0
    3.8302  -28.0322  -78.8745 C   0  0  0  0  0  0  0  0  0  0  0  0
    4.5685  -27.0837  -79.4515 N   0  0  0  0  0  0  0  0  0  0  0  0
    2.9078  -27.6185  -77.9486 N   0  0  0  0  0  0  0  0  0  0  0  0
    2.1038  -28.5209  -77.3111 C   0  0  0  0  0  0  0  0  0  0  0  0
    2.1978  -29.8531  -77.5584 N   0  0  0  0  0  0  0  0  0  0  0  0
    7.3731  -32.3197  -87.0533 O   0  5  0  0  0  0  0  0  0  0  0  0
    6.0824  -31.3729  -91.1931 O   0  0  0  0  0  0  0  0  0  0  0  0
    2.6082  -31.5631  -82.8326 S   0  0  0  0  0  0  0  0  0  0  0  0
    3.0448  -30.9169  -81.4016 C   0  0  0  0  0  0  0  0  0  0  0  0
    5.6906  -34.0588  -86.7848 O   0  0  0  0  0  0  0  0  0  0  0  0
    8.0586  -31.7053  -89.6874 O   0  5  0  0  0  0  0  0  0  0  0  0
    4.3794  -30.5715  -81.3036 N   0  0  0  0  0  0  0  0  0  0  0  0
    5.7999  -32.5475  -89.0093 O   0  0  0  0  0  0  0  0  0  0  0  0
    6.2991  -30.0225  -89.1567 O   0  0  0  0  0  0  0  0  0  0  0  0
    5.0000  -30.8736  -82.4907 C   0  0  1  0  0  0  0  0  0  0  0  0
    4.0920  -31.4266  -83.4074 C   0  0  2  0  0  0  0  0  0  0  0  0
    4.1821  -31.9219  -84.8297 C   0  0  0  0  0  0  0  0  0  0  0  0
    4.7853  -30.8580  -85.7530 C   0  0  0  0  0  0  0  0  0  0  0  0
    4.9712  -31.4085  -87.0511 O   0  0  0  0  0  0  0  0  0  0  0  0
  1 11  1  0  0  0  0
  3 13  1  1  0  0  0
  3 17  2  0  0  0  0
  3 20  1  0  0  0  0
  3 26  1  0  0  0  0
  4 14  1  6  0  0  0
  4 18  1  0  0  0  0
  4 21  2  0  0  0  0
  4 20  1  0  0  0  0
  5 19  1  0  0  0  0
  5  7  1  0  0  0  0
  6  7  2  0  0  0  0
  6 12  1  0  0  0  0
  7  8  1  0  0  0  0
  8  9  1  0  0  0  0
  8 10  2  0  0  0  0
 10 11  1  0  0  0  0
 11 12  2  0  0  0  0
 15 23  1  0  0  0  0
 15 16  1  0  0  0  0
 16 19  1  0  0  0  0
 19 22  1  0  0  0  0
 22  2  1  6  0  0  0
 22 23  1  0  0  0  0
 23 24  1  6  0  0  0
 24 25  1  0  0  0  0
 25 26  1  0  0  0  0
M  CHG  2  13  -1  18  -1
M  END
>  <CHROM.1>
-36.02255650,-14.26883292,67.13733633,-171.36790114,125.93543165,174.42662332
-61.53979710,-61.75676277,4.75079312,-30.80075997,-84.01777179,2.11469853
0.94487282,0.84553121

>  <Name>
ligand

>  <RI>
0

>  <Rbt.Current_Directory>
/home/itssahil/PROJECTS/Mol_Feturizer/New_Systems/rnas/2CKY

>  <Rbt.Executable>
rbdock ($Id: //depot/dev/client3/rdock/2013.1/src/exe/rbdock.cxx#4 $)

>  <Rbt.Library>
libRbt.so (2013.1, Build901 2013/11/27)

>  <Rbt.Parameter_File>
/export/apps/rDock/src/rDock_2013.1_src/data/scripts/dock_solv.prm

>  <Rbt.Receptor>
prm/blind_docking_100.prm

>  <SCORE>
-15.1582

>  <SCORE.INTER>
-10.6563

>  <SCORE.INTER.CONST>
1

>  <SCORE.INTER.POLAR>
0

>  <SCORE.INTER.ROT>
8

>  <SCORE.INTER.SOLV>
14.8347

>  <SCORE.INTER.VDW>
-20.9824

>  <SCORE.INTER.norm>
-0.409856

>  <SCORE.INTRA>
-4.50192

>  <SCORE.INTRA.DIHEDRAL>
-10.8548

>  <SCORE.INTRA.DIHEDRAL.0>
16.4846

>  <SCORE.INTRA.POLAR>
0

>  <SCORE.INTRA.POLAR.0>
0

>  <SCORE.INTRA.REPUL>
0

>  <SCORE.INTRA.REPUL.0>
0

>  <SCORE.INTRA.SOLV>
3.30081

>  <SCORE.INTRA.SOLV.lig_0>
-82.6983

>  <SCORE.INTRA.VDW>
-0.724903

>  <SCORE.INTRA.VDW.0>
-2.11466

>  <SCORE.INTRA.norm>
-0.173151

>  <SCORE.RESTR>
0

>  <SCORE.RESTR.CAVITY>
0

>  <SCORE.RESTR.norm>
0

>  <SCORE.SYSTEM>
0

>  <SCORE.SYSTEM.CONST>
0

>  <SCORE.SYSTEM.DIHEDRAL>
0

>  <SCORE.SYSTEM.SOLV>
0

>  <SCORE.SYSTEM.norm>
0

>  <SCORE.heavy>
26

>  <SCORE.norm>
-0.583007

>  <RMSD>
18.509

$$$$
ligand
 OpenBabel11021811423D
libRbt.so/2013.1/901 2013/11/27
 26 27  0  0  0  0  0  0  0  0999 V2000
    1.6297  -35.4627  -86.3643 C   0  0  0  0  0  0  0  0  0  0  0  0
    5.5413  -29.9061  -84.9528 C   0  0  0  0  0  0  0  0  0  0  0  0
    3.9028  -28.0340  -82.2470 P   0  0  2  0  0  0  0  0  0  0  0  0
    2.8760  -28.4178  -79.7036 P   0  0  2  0  0  0  0  0  0  0  0  0
    5.4354  -31.3986  -87.7299 C   0  0  0  0  0  0  0  0  0  0  0  0
    3.1268  -32.3028  -87.6162 C   0  0  0  0  0  0  0  0  0  0  0  0
    4.4741  -32.4829  -87.3313 C   0  0  0  0  0  0  0  0  0  0  0  0
    4.8841  -33.6810  -86.7391 C   0  0  0  0  0  0  0  0  0  0  0  0
    6.1488  -33.9711  -86.4321 N   0  0  0  0  0  0  0  0  0  0  0  0
    3.9428  -34.6318  -86.4402 N   0  0  0  0  0  0  0  0  0  0  0  0
    2.6213  -34.4180  -86.7146 C   0  0  0  0  0  0  0  0  0  0  0  0
    2.1960  -33.2700  -87.3027 N   0  0  0  0  0  0  0  0  0  0  0  0
    4.8498  -29.2099  -82.1108 O   0  5  0  0  0  0  0  0  0  0  0  0
    3.5489  -27.1323  -79.2777 O   0  0  0  0  0  0  0  0  0  0  0  0
    3.9314  -27.7795  -87.8249 S   0  0  0  0  0  0  0  0  0  0  0  0
    4.4019  -29.2371  -88.3818 C   0  0  0  0  0  0  0  0  0  0  0  0
    4.7352  -26.7811  -81.9875 O   0  0  0  0  0  0  0  0  0  0  0  0
    3.7582  -29.6240  -79.4534 O   0  5  0  0  0  0  0  0  0  0  0  0
    4.9915  -30.0566  -87.4379 N   0  0  0  0  0  0  0  0  0  0  0  0
    2.6439  -28.3197  -81.2776 O   0  0  0  0  0  0  0  0  0  0  0  0
    1.5709  -28.5444  -78.9443 O   0  0  0  0  0  0  0  0  0  0  0  0
    5.0162  -29.3946  -86.2351 C   0  0  1  0  0  0  0  0  0  0  0  0
    4.4423  -28.1187  -86.3502 C   0  0  2  0  0  0  0  0  0  0  0  0
    4.1810  -26.9777  -85.3982 C   0  0  0  0  0  0  0  0  0  0  0  0
    2.8737  -27.1850  -84.6259 C   0  0  0  0  0  0  0  0  0  0  0  0
    3.0566  -28.2047  -83.6514 O   0  0  0  0  0  0  0  0  0  0  0  0
  1 11  1  0  0  0  0
  3 13  1  1  0  0  0
  3 17  2  0  0  0  0
  3 20  1  0  0  0  0
  3 26  1  0  0  0  0
  4 14  1  1  0  0  0
  4 18  1  0  0  0  0
  4 21  2  0  0  0  0
  4 20  1  0  0  0  0
  5 19  1  0  0  0  0
  5  7  1  0  0  0  0
  6  7  2  0  0  0  0
  6 12  1  0  0  0  0
  7  8  1  0  0  0  0
  8  9  1  0  0  0  0
  8 10  2  0  0  0  0
 10 11  1  0  0  0  0
 11 12  2  0  0  0  0
 15 23  1  0  0  0  0
 15 16  1  0  0  0  0
 16 19  1  0  0  0  0
 19 22  1  0  0  0  0
 22  2  1  1  0  0  0
 22 23  1  0  0  0  0
 23 24  1  1  0  0  0
 24 25  1  0  0  0  0
 25 26  1  0  0  0  0
M  CHG  2  13  -1  18  -1
M  END
>  <CHROM.1>
63.42048883,-98.09974410,43.91006188,55.63324568,95.82074992,73.26588320
73.89501198,-131.66754854,3.81478520,-29.82128424,-84.34522206,1.21167826
-1.31853573,-2.50705522

>  <Name>
ligand

>  <RI>
0

>  <Rbt.Current_Directory>
/home/itssahil/PROJECTS/Mol_Feturizer/New_Systems/rnas/2CKY

>  <Rbt.Executable>
rbdock ($Id: //depot/dev/client3/rdock/2013.1/src/exe/rbdock.cxx#4 $)

>  <Rbt.Library>
libRbt.so (2013.1, Build901 2013/11/27)

>  <Rbt.Parameter_File>
/export/apps/rDock/src/rDock_2013.1_src/data/scripts/dock_solv.prm

>  <Rbt.Receptor>
prm/blind_docking_100.prm

>  <SCORE>
-15.1285

>  <SCORE.INTER>
-10.4895

>  <SCORE.INTER.CONST>
1

>  <SCORE.INTER.POLAR>
0

>  <SCORE.INTER.ROT>
8

>  <SCORE.INTER.SOLV>
8.96818

>  <SCORE.INTER.VDW>
-18.9157

>  <SCORE.INTER.norm>
-0.403442

>  <SCORE.INTRA>
-4.639

>  <SCORE.INTRA.DIHEDRAL>
-8.00556

>  <SCORE.INTRA.DIHEDRAL.0>
16.4846

>  <SCORE.INTRA.POLAR>
0

>  <SCORE.INTRA.POLAR.0>
0

>  <SCORE.INTRA.REPUL>
0

>  <SCORE.INTRA.REPUL.0>
0

>  <SCORE.INTRA.SOLV>
2.8988

>  <SCORE.INTRA.SOLV.lig_0>
-82.6983

>  <SCORE.INTRA.VDW>
-2.08562

>  <SCORE.INTRA.VDW.0>
-2.11466

>  <SCORE.INTRA.norm>
-0.178423

>  <SCORE.RESTR>
0

>  <SCORE.RESTR.CAVITY>
0

>  <SCORE.RESTR.norm>
0

>  <SCORE.SYSTEM>
0

>  <SCORE.SYSTEM.CONST>
0

>  <SCORE.SYSTEM.DIHEDRAL>
0

>  <SCORE.SYSTEM.SOLV>
0

>  <SCORE.SYSTEM.norm>
0

>  <SCORE.heavy>
26

>  <SCORE.norm>
-0.581866

>  <RMSD>
18.521

$$$$
ligand
 OpenBabel11021811423D
libRbt.so/2013.1/901 2013/11/27
 26 27  0  0  0  0  0  0  0  0999 V2000
    8.2764  -33.1610  -86.2540 C   0  0  0  0  0  0  0  0  0  0  0  0
    2.6208  -30.7673  -85.9357 C   0  0  0  0  0  0  0  0  0  0  0  0
    0.0319  -30.6412  -82.0955 P   0  0  2  0  0  0  0  0  0  0  0  0
   -0.6270  -29.2418  -79.7980 P   0  0  2  0  0  0  0  0  0  0  0  0
    4.4031  -29.3766  -88.1360 C   0  0  0  0  0  0  0  0  0  0  0  0
    5.5852  -30.6026  -86.3304 C   0  0  0  0  0  0  0  0  0  0  0  0
    5.4485  -30.3605  -87.6912 C   0  0  0  0  0  0  0  0  0  0  0  0
    6.2463  -31.0778  -88.5875 C   0  0  0  0  0  0  0  0  0  0  0  0
    6.1946  -30.9402  -89.9127 N   0  0  0  0  0  0  0  0  0  0  0  0
    7.1514  -31.9825  -88.0958 N   0  0  0  0  0  0  0  0  0  0  0  0
    7.2770  -32.1851  -86.7502 C   0  0  0  0  0  0  0  0  0  0  0  0
    6.5053  -31.5133  -85.8570 N   0  0  0  0  0  0  0  0  0  0  0  0
   -0.2938  -32.0420  -82.5748 O   0  5  0  0  0  0  0  0  0  0  0  0
    0.5530  -29.8459  -79.0704 O   0  0  0  0  0  0  0  0  0  0  0  0
    2.7177  -26.8595  -85.6475 S   0  0  0  0  0  0  0  0  0  0  0  0
    3.6407  -27.3684  -86.8906 C   0  0  0  0  0  0  0  0  0  0  0  0
    1.5112  -30.6501  -81.7193 O   0  0  0  0  0  0  0  0  0  0  0  0
   -1.8270  -29.0810  -78.8872 O   0  5  0  0  0  0  0  0  0  0  0  0
    3.6751  -28.7390  -87.0650 N   0  0  0  0  0  0  0  0  0  0  0  0
   -1.0384  -30.2687  -80.9458 O   0  0  0  0  0  0  0  0  0  0  0  0
   -0.2012  -27.9013  -80.3617 O   0  0  0  0  0  0  0  0  0  0  0  0
    2.8841  -29.3240  -86.1071 C   0  0  1  0  0  0  0  0  0  0  0  0
    2.3035  -28.3558  -85.2729 C   0  0  2  0  0  0  0  0  0  0  0  0
    1.3611  -28.3905  -84.0952 C   0  0  0  0  0  0  0  0  0  0  0  0
    0.1023  -29.2047  -84.4129 C   0  0  0  0  0  0  0  0  0  0  0  0
   -0.5478  -29.5632  -83.1998 O   0  0  0  0  0  0  0  0  0  0  0  0
  1 11  1  0  0  0  0
  3 13  1  6  0  0  0
  3 17  2  0  0  0  0
  3 20  1  0  0  0  0
  3 26  1  0  0  0  0
  4 14  1  1  0  0  0
  4 18  1  0  0  0  0
  4 21  2  0  0  0  0
  4 20  1  0  0  0  0
  5 19  1  0  0  0  0
  5  7  1  0  0  0  0
  6  7  2  0  0  0  0
  6 12  1  0  0  0  0
  7  8  1  0  0  0  0
  8  9  1  0  0  0  0
  8 10  2  0  0  0  0
 10 11  1  0  0  0  0
 11 12  2  0  0  0  0
 15 23  1  0  0  0  0
 15 16  1  0  0  0  0
 16 19  1  0  0  0  0
 19 22  1  0  0  0  0
 22  2  1  6  0  0  0
 22 23  1  0  0  0  0
 23 24  1  6  0  0  0
 24 25  1  0  0  0  0
 25 26  1  0  0  0  0
M  CHG  2  13  -1  18  -1
M  END
>  <CHROM.1>
151.73637304,121.73055504,2.35897916,-60.60598667,127.60532736,162.13675649
-69.36939548,-81.03996461,2.42872034,-29.85097399,-84.23157533,-0.42842150
-0.73052355,2.36616971

>  <Name>
ligand

>  <RI>
0

>  <Rbt.Current_Directory>
/home/itssahil/PROJECTS/Mol_Feturizer/New_Systems/rnas/2CKY

>  <Rbt.Executable>
rbdock ($Id: //depot/dev/client3/rdock/2013.1/src/exe/rbdock.cxx#4 $)

>  <Rbt.Library>
libRbt.so (2013.1, Build901 2013/11/27)

>  <Rbt.Parameter_File>
/export/apps/rDock/src/rDock_2013.1_src/data/scripts/dock_solv.prm

>  <Rbt.Receptor>
prm/blind_docking_100.prm

>  <SCORE>
-14.991

>  <SCORE.INTER>
-10.523

>  <SCORE.INTER.CONST>
1

>  <SCORE.INTER.POLAR>
0

>  <SCORE.INTER.ROT>
8

>  <SCORE.INTER.SOLV>
15.2963

>  <SCORE.INTER.VDW>
-21.0474

>  <SCORE.INTER.norm>
-0.40473

>  <SCORE.INTRA>
-4.46803

>  <SCORE.INTRA.DIHEDRAL>
-8.6267

>  <SCORE.INTRA.DIHEDRAL.0>
16.4846

>  <SCORE.INTRA.POLAR>
0

>  <SCORE.INTRA.POLAR.0>
0

>  <SCORE.INTRA.REPUL>
0

>  <SCORE.INTRA.REPUL.0>
0

>  <SCORE.INTRA.SOLV>
1.23201

>  <SCORE.INTRA.SOLV.lig_0>
-82.6983

>  <SCORE.INTRA.VDW>
-0.770686

>  <SCORE.INTRA.VDW.0>
-2.11466

>  <SCORE.INTRA.norm>
-0.171847

>  <SCORE.RESTR>
0

>  <SCORE.RESTR.CAVITY>
0

>  <SCORE.RESTR.norm>
0

>  <SCORE.SYSTEM>
0

>  <SCORE.SYSTEM.CONST>
0

>  <SCORE.SYSTEM.DIHEDRAL>
0

>  <SCORE.SYSTEM.SOLV>
0

>  <SCORE.SYSTEM.norm>
0

>  <SCORE.heavy>
26

>  <SCORE.norm>
-0.576577

>  <RMSD>
18.551

$$$$
ligand
 OpenBabel11021811423D
libRbt.so/2013.1/901 2013/11/27
 26 27  0  0  0  0  0  0  0  0999 V2000
    9.5316  -32.9950  -89.3321 C   0  0  0  0  0  0  0  0  0  0  0  0
    4.7758  -30.7442  -85.1750 C   0  0  0  0  0  0  0  0  0  0  0  0
    7.2074  -26.8523  -81.6772 P   0  0  2  0  0  0  0  0  0  0  0  0
    7.2789  -26.8088  -78.9089 P   0  0  2  0  0  0  0  0  0  0  0  0
    4.2535  -31.0238  -88.2734 C   0  0  0  0  0  0  0  0  0  0  0  0
    6.4221  -30.9695  -89.4794 C   0  0  0  0  0  0  0  0  0  0  0  0
    5.6206  -31.5923  -88.5314 C   0  0  0  0  0  0  0  0  0  0  0  0
    6.1362  -32.6813  -87.8227 C   0  0  0  0  0  0  0  0  0  0  0  0
    5.4664  -33.3486  -86.8825 N   0  0  0  0  0  0  0  0  0  0  0  0
    7.4079  -33.1129  -88.0983 N   0  0  0  0  0  0  0  0  0  0  0  0
    8.1659  -32.4919  -89.0507 C   0  0  0  0  0  0  0  0  0  0  0  0
    7.6966  -31.4228  -89.7446 N   0  0  0  0  0  0  0  0  0  0  0  0
    8.0721  -28.0875  -81.8335 O   0  5  0  0  0  0  0  0  0  0  0  0
    6.3429  -27.1483  -77.7708 O   0  0  0  0  0  0  0  0  0  0  0  0
    3.9308  -27.3500  -86.9438 S   0  0  0  0  0  0  0  0  0  0  0  0
    3.9396  -28.5738  -88.0201 C   0  0  0  0  0  0  0  0  0  0  0  0
    8.1286  -25.6542  -81.8915 O   0  0  0  0  0  0  0  0  0  0  0  0
    7.7436  -25.3682  -78.8441 O   0  5  0  0  0  0  0  0  0  0  0  0
    4.2380  -29.8136  -87.4870 N   0  0  0  0  0  0  0  0  0  0  0  0
    6.4474  -26.9776  -80.2584 O   0  0  0  0  0  0  0  0  0  0  0  0
    8.4614  -27.7543  -78.8488 O   0  0  0  0  0  0  0  0  0  0  0  0
    4.4488  -29.6726  -86.1375 C   0  0  1  0  0  0  0  0  0  0  0  0
    4.2946  -28.3351  -85.7404 C   0  0  2  0  0  0  0  0  0  0  0  0
    4.3829  -27.5960  -84.4279 C   0  0  0  0  0  0  0  0  0  0  0  0
    5.8336  -27.4884  -83.9459 C   0  0  0  0  0  0  0  0  0  0  0  0
    5.8514  -27.0444  -82.5948 O   0  0  0  0  0  0  0  0  0  0  0  0
  1 11  1  0  0  0  0
  3 13  1  6  0  0  0
  3 17  2  0  0  0  0
  3 20  1  0  0  0  0
  3 26  1  0  0  0  0
  4 14  1  1  0  0  0
  4 18  1  0  0  0  0
  4 21  2  0  0  0  0
  4 20  1  0  0  0  0
  5 19  1  0  0  0  0
  5  7  1  0  0  0  0
  6  7  2  0  0  0  0
  6 12  1  0  0  0  0
  7  8  1  0  0  0  0
  8  9  1  0  0  0  0
  8 10  2  0  0  0  0
 10 11  1  0  0  0  0
 11 12  2  0  0  0  0
 15 23  1  0  0  0  0
 15 16  1  0  0  0  0
 16 19  1  0  0  0  0
 19 22  1  0  0  0  0
 22  2  1  1  0  0  0
 22 23  1  0  0  0  0
 23 24  1  1  0  0  0
 24 25  1  0  0  0  0
 25 26  1  0  0  0  0
M  CHG  2  13  -1  18  -1
M  END
>  <CHROM.1>
71.14645644,108.42888825,-75.76899323,-173.03561749,-108.57199678,-167.90322915
177.49190362,-47.14903410,6.27789726,-28.87284352,-84.38539214,-1.70616012
-0.63637130,0.98654324

>  <Name>
ligand

>  <RI>
0

>  <Rbt.Current_Directory>
/home/itssahil/PROJECTS/Mol_Feturizer/New_Systems/rnas/2CKY

>  <Rbt.Executable>
rbdock ($Id: //depot/dev/client3/rdock/2013.1/src/exe/rbdock.cxx#4 $)

>  <Rbt.Library>
libRbt.so (2013.1, Build901 2013/11/27)

>  <Rbt.Parameter_File>
/export/apps/rDock/src/rDock_2013.1_src/data/scripts/dock_solv.prm

>  <Rbt.Receptor>
prm/blind_docking_100.prm

>  <SCORE>
-15.6967

>  <SCORE.INTER>
-10.6699

>  <SCORE.INTER.CONST>
1

>  <SCORE.INTER.POLAR>
0

>  <SCORE.INTER.ROT>
8

>  <SCORE.INTER.SOLV>
13.4316

>  <SCORE.INTER.VDW>
-20.5238

>  <SCORE.INTER.norm>
-0.410382

>  <SCORE.INTRA>
-5.02677

>  <SCORE.INTRA.DIHEDRAL>
-10.6575

>  <SCORE.INTRA.DIHEDRAL.0>
16.4846

>  <SCORE.INTRA.POLAR>
0

>  <SCORE.INTRA.POLAR.0>
0

>  <SCORE.INTRA.REPUL>
0

>  <SCORE.INTRA.REPUL.0>
0

>  <SCORE.INTRA.SOLV>
3.88433

>  <SCORE.INTRA.SOLV.lig_0>
-82.6983

>  <SCORE.INTRA.VDW>
-1.64018

>  <SCORE.INTRA.VDW.0>
-2.11466

>  <SCORE.INTRA.norm>
-0.193337

>  <SCORE.RESTR>
0

>  <SCORE.RESTR.CAVITY>
0

>  <SCORE.RESTR.norm>
0

>  <SCORE.SYSTEM>
0

>  <SCORE.SYSTEM.CONST>
0

>  <SCORE.SYSTEM.DIHEDRAL>
0

>  <SCORE.SYSTEM.SOLV>
0

>  <SCORE.SYSTEM.norm>
0

>  <SCORE.heavy>
26

>  <SCORE.norm>
-0.603719

>  <RMSD>
18.658

$$$$
ligand
 OpenBabel11021811423D
libRbt.so/2013.1/901 2013/11/27
 26 27  0  0  0  0  0  0  0  0999 V2000
    9.9634  -24.7330  -79.8363 C   0  0  0  0  0  0  0  0  0  0  0  0
    3.2248  -30.4462  -79.4296 C   0  0  0  0  0  0  0  0  0  0  0  0
   -0.3901  -29.6347  -81.9737 P   0  0  2  0  0  0  0  0  0  0  0  0
    0.1710  -28.2686  -84.3167 P   0  0  2  0  0  0  0  0  0  0  0  0
    5.8554  -28.7301  -79.7229 C   0  0  0  0  0  0  0  0  0  0  0  0
    7.6446  -27.3823  -78.6540 C   0  0  0  0  0  0  0  0  0  0  0  0
    6.9054  -27.6574  -79.7972 C   0  0  0  0  0  0  0  0  0  0  0  0
    7.2041  -26.9677  -80.9759 C   0  0  0  0  0  0  0  0  0  0  0  0
    6.5727  -27.1560  -82.1350 N   0  0  0  0  0  0  0  0  0  0  0  0
    8.2027  -26.0285  -80.9625 N   0  0  0  0  0  0  0  0  0  0  0  0
    8.8999  -25.7655  -79.8170 C   0  0  0  0  0  0  0  0  0  0  0  0
    8.6414  -26.4302  -78.6611 N   0  0  0  0  0  0  0  0  0  0  0  0
   -0.0745  -31.0496  -82.4173 O   0  5  0  0  0  0  0  0  0  0  0  0
    1.3201  -27.4666  -84.8851 O   0  0  0  0  0  0  0  0  0  0  0  0
    2.7777  -26.6885  -78.4084 S   0  0  0  0  0  0  0  0  0  0  0  0
    4.3125  -26.9806  -78.8723 C   0  0  0  0  0  0  0  0  0  0  0  0
   -1.9003  -29.4670  -82.1186 O   0  0  0  0  0  0  0  0  0  0  0  0
   -1.1060  -27.4554  -84.2550 O   0  5  0  0  0  0  0  0  0  0  0  0
    4.5681  -28.2872  -79.2435 N   0  0  0  0  0  0  0  0  0  0  0  0
    0.5652  -28.6450  -82.8187 O   0  0  0  0  0  0  0  0  0  0  0  0
   -0.0211  -29.4994  -85.1793 O   0  0  0  0  0  0  0  0  0  0  0  0
    3.4092  -29.0135  -79.1214 C   0  0  1  0  0  0  0  0  0  0  0  0
    2.3543  -28.2067  -78.6668 C   0  0  2  0  0  0  0  0  0  0  0  0
    0.8927  -28.4319  -78.3677 C   0  0  0  0  0  0  0  0  0  0  0  0
    0.0387  -28.3013  -79.6334 C   0  0  0  0  0  0  0  0  0  0  0  0
    0.3506  -29.3637  -80.5261 O   0  0  0  0  0  0  0  0  0  0  0  0
  1 11  1  0  0  0  0
  3 13  1  6  0  0  0
  3 17  2  0  0  0  0
  3 20  1  0  0  0  0
  3 26  1  0  0  0  0
  4 14  1  6  0  0  0
  4 18  1  0  0  0  0
  4 21  2  0  0  0  0
  4 20  1  0  0  0  0
  5 19  1  0  0  0  0
  5  7  1  0  0  0  0
  6  7  2  0  0  0  0
  6 12  1  0  0  0  0
  7  8  1  0  0  0  0
  8  9  1  0  0  0  0
  8 10  2  0  0  0  0
 10 11  1  0  0  0  0
 11 12  2  0  0  0  0
 15 23  1  0  0  0  0
 15 16  1  0  0  0  0
 16 19  1  0  0  0  0
 19 22  1  0  0  0  0
 22  2  1  6  0  0  0
 22 23  1  0  0  0  0
 23 24  1  6  0  0  0
 24 25  1  0  0  0  0
 25 26  1  0  0  0  0
M  CHG  2  13  -1  18  -1
M  END
>  <CHROM.1>
79.74603396,-0.32036012,85.83334285,-173.81230751,94.43989845,66.79526665
177.07627951,-163.59485636,2.97201262,-28.07285822,-81.00629791,-0.33969659
-0.34712753,-1.43940059

>  <Name>
ligand

>  <RI>
0

>  <Rbt.Current_Directory>
/home/itssahil/PROJECTS/Mol_Feturizer/New_Systems/rnas/2CKY

>  <Rbt.Executable>
rbdock ($Id: //depot/dev/client3/rdock/2013.1/src/exe/rbdock.cxx#4 $)

>  <Rbt.Library>
libRbt.so (2013.1, Build901 2013/11/27)

>  <Rbt.Parameter_File>
/export/apps/rDock/src/rDock_2013.1_src/data/scripts/dock_solv.prm

>  <Rbt.Receptor>
prm/blind_docking_100.prm

>  <SCORE>
-23.3078

>  <SCORE.INTER>
-17.5212

>  <SCORE.INTER.CONST>
1

>  <SCORE.INTER.POLAR>
0

>  <SCORE.INTER.ROT>
8

>  <SCORE.INTER.SOLV>
9.30698

>  <SCORE.INTER.VDW>
-23.7165

>  <SCORE.INTER.norm>
-0.673892

>  <SCORE.INTRA>
-5.78662

>  <SCORE.INTRA.DIHEDRAL>
-10.2271

>  <SCORE.INTRA.DIHEDRAL.0>
16.4846

>  <SCORE.INTRA.POLAR>
0

>  <SCORE.INTRA.POLAR.0>
0

>  <SCORE.INTRA.REPUL>
0

>  <SCORE.INTRA.REPUL.0>
0

>  <SCORE.INTRA.SOLV>
2.02466

>  <SCORE.INTRA.SOLV.lig_0>
-82.6983

>  <SCORE.INTRA.VDW>
-1.6854

>  <SCORE.INTRA.VDW.0>
-2.11466

>  <SCORE.INTRA.norm>
-0.222562

>  <SCORE.RESTR>
0

>  <SCORE.RESTR.CAVITY>
0

>  <SCORE.RESTR.norm>
0

>  <SCORE.SYSTEM>
0

>  <SCORE.SYSTEM.CONST>
0

>  <SCORE.SYSTEM.DIHEDRAL>
0

>  <SCORE.SYSTEM.SOLV>
0

>  <SCORE.SYSTEM.norm>
0

>  <SCORE.heavy>
26

>  <SCORE.norm>
-0.896454

>  <RMSD>
18.745

$$$$
ligand
 OpenBabel11021811423D
libRbt.so/2013.1/901 2013/11/27
 26 27  0  0  0  0  0  0  0  0999 V2000
   -1.2979  -28.4391  -78.5411 C   0  0  0  0  0  0  0  0  0  0  0  0
    4.3288  -27.4005  -82.6596 C   0  0  0  0  0  0  0  0  0  0  0  0
    3.8092  -31.9459  -86.5861 P   0  0  2  0  0  0  0  0  0  0  0  0
    5.2448  -34.2401  -85.9977 P   0  0  2  0  0  0  0  0  0  0  0  0
    4.2662  -27.4518  -79.5061 C   0  0  0  0  0  0  0  0  0  0  0  0
    2.1297  -28.6313  -79.9581 C   0  0  0  0  0  0  0  0  0  0  0  0
    2.8027  -27.6569  -79.2325 C   0  0  0  0  0  0  0  0  0  0  0  0
    2.1083  -26.9502  -78.2463 C   0  0  0  0  0  0  0  0  0  0  0  0
    2.6511  -26.0039  -77.4798 N   0  0  0  0  0  0  0  0  0  0  0  0
    0.7815  -27.2263  -78.0394 N   0  0  0  0  0  0  0  0  0  0  0  0
    0.1411  -28.1773  -78.7828 C   0  0  0  0  0  0  0  0  0  0  0  0
    0.7938  -28.8895  -79.7374 N   0  0  0  0  0  0  0  0  0  0  0  0
    2.6761  -32.5697  -85.7955 O   0  5  0  0  0  0  0  0  0  0  0  0
    3.9899  -34.8266  -85.3913 O   0  0  0  0  0  0  0  0  0  0  0  0
    6.0343  -30.5664  -81.1003 S   0  0  0  0  0  0  0  0  0  0  0  0
    5.4736  -29.5794  -79.9308 C   0  0  0  0  0  0  0  0  0  0  0  0
    3.1565  -31.0860  -87.6651 O   0  0  0  0  0  0  0  0  0  0  0  0
    6.0906  -33.5286  -84.9613 O   0  5  0  0  0  0  0  0  0  0  0  0
    4.8614  -28.4275  -80.3876 N   0  0  0  0  0  0  0  0  0  0  0  0
    4.7787  -33.1466  -87.0598 O   0  0  0  0  0  0  0  0  0  0  0  0
    6.0282  -35.3634  -86.6461 O   0  0  0  0  0  0  0  0  0  0  0  0
    4.8875  -28.4306  -81.7604 C   0  0  1  0  0  0  0  0  0  0  0  0
    5.5171  -29.5858  -82.2499 C   0  0  2  0  0  0  0  0  0  0  0  0
    5.8187  -30.1349  -83.6225 C   0  0  0  0  0  0  0  0  0  0  0  0
    4.5413  -30.6011  -84.3289 C   0  0  0  0  0  0  0  0  0  0  0  0
    4.8864  -31.2888  -85.5252 O   0  0  0  0  0  0  0  0  0  0  0  0
  1 11  1  0  0  0  0
  3 13  1  1  0  0  0
  3 17  2  0  0  0  0
  3 20  1  0  0  0  0
  3 26  1  0  0  0  0
  4 14  1  1  0  0  0
  4 18  1  0  0  0  0
  4 21  2  0  0  0  0
  4 20  1  0  0  0  0
  5 19  1  0  0  0  0
  5  7  1  0  0  0  0
  6  7  2  0  0  0  0
  6 12  1  0  0  0  0
  7  8  1  0  0  0  0
  8  9  1  0  0  0  0
  8 10  2  0  0  0  0
 10 11  1  0  0  0  0
 11 12  2  0  0  0  0
 15 23  1  0  0  0  0
 15 16  1  0  0  0  0
 16 19  1  0  0  0  0
 19 22  1  0  0  0  0
 22  2  1  6  0  0  0
 22 23  1  0  0  0  0
 23 24  1  6  0  0  0
 24 25  1  0  0  0  0
 25 26  1  0  0  0  0
M  CHG  2  13  -1  18  -1
M  END
>  <CHROM.1>
-48.07985579,-92.15458903,-7.81874162,55.69169257,108.97031481,-171.40188615
-179.67623433,-38.93693092,3.90806767,-30.49336772,-82.81480248,1.85016565
-0.05510859,0.92911079

>  <Name>
ligand

>  <RI>
0

>  <Rbt.Current_Directory>
/home/itssahil/PROJECTS/Mol_Feturizer/New_Systems/rnas/2CKY

>  <Rbt.Executable>
rbdock ($Id: //depot/dev/client3/rdock/2013.1/src/exe/rbdock.cxx#4 $)

>  <Rbt.Library>
libRbt.so (2013.1, Build901 2013/11/27)

>  <Rbt.Parameter_File>
/export/apps/rDock/src/rDock_2013.1_src/data/scripts/dock_solv.prm

>  <Rbt.Receptor>
prm/blind_docking_100.prm

>  <SCORE>
-13.9189

>  <SCORE.INTER>
-7.94067

>  <SCORE.INTER.CONST>
1

>  <SCORE.INTER.POLAR>
0

>  <SCORE.INTER.ROT>
8

>  <SCORE.INTER.SOLV>
13.7018

>  <SCORE.INTER.VDW>
-18.7944

>  <SCORE.INTER.norm>
-0.30541

>  <SCORE.INTRA>
-5.97826

>  <SCORE.INTRA.DIHEDRAL>
-10.5341

>  <SCORE.INTRA.DIHEDRAL.0>
16.4846

>  <SCORE.INTRA.POLAR>
0

>  <SCORE.INTRA.POLAR.0>
0

>  <SCORE.INTRA.REPUL>
0

>  <SCORE.INTRA.REPUL.0>
0

>  <SCORE.INTRA.SOLV>
0.897747

>  <SCORE.INTRA.SOLV.lig_0>
-82.6983

>  <SCORE.INTRA.VDW>
-1.16007

>  <SCORE.INTRA.VDW.0>
-2.11466

>  <SCORE.INTRA.norm>
-0.229933

>  <SCORE.RESTR>
0

>  <SCORE.RESTR.CAVITY>
0

>  <SCORE.RESTR.norm>
0

>  <SCORE.SYSTEM>
0

>  <SCORE.SYSTEM.CONST>
0

>  <SCORE.SYSTEM.DIHEDRAL>
0

>  <SCORE.SYSTEM.SOLV>
0

>  <SCORE.SYSTEM.norm>
0

>  <SCORE.heavy>
26

>  <SCORE.norm>
-0.535343

>  <RMSD>
18.885

$$$$
ligand
 OpenBabel11021811423D
libRbt.so/2013.1/901 2013/11/27
 26 27  0  0  0  0  0  0  0  0999 V2000
   -1.1681  -28.0026  -83.2998 C   0  0  0  0  0  0  0  0  0  0  0  0
    2.4857  -26.8921  -78.3023 C   0  0  0  0  0  0  0  0  0  0  0  0
    7.9419  -25.1903  -81.4661 P   0  0  2  0  0  0  0  0  0  0  0  0
   10.1837  -24.3789  -80.0567 P   0  0  2  0  0  0  0  0  0  0  0  0
    2.5295  -29.8716  -79.3375 C   0  0  0  0  0  0  0  0  0  0  0  0
    0.4136  -28.7739  -80.0292 C   0  0  0  0  0  0  0  0  0  0  0  0
    1.5811  -29.4211  -80.4128 C   0  0  0  0  0  0  0  0  0  0  0  0
    1.8496  -29.5766  -81.7759 C   0  0  0  0  0  0  0  0  0  0  0  0
    2.9412  -30.1678  -82.2621 N   0  0  0  0  0  0  0  0  0  0  0  0
    0.9444  -29.1038  -82.6905 N   0  0  0  0  0  0  0  0  0  0  0  0
   -0.2055  -28.4885  -82.2826 C   0  0  0  0  0  0  0  0  0  0  0  0
   -0.4856  -28.3106  -80.9655 N   0  0  0  0  0  0  0  0  0  0  0  0
    7.6308  -26.2267  -82.5277 O   0  5  0  0  0  0  0  0  0  0  0  0
   11.4804  -24.9978  -79.5854 O   0  0  0  0  0  0  0  0  0  0  0  0
    6.0797  -28.2226  -79.1245 S   0  0  0  0  0  0  0  0  0  0  0  0
    4.9622  -29.3778  -79.3942 C   0  0  0  0  0  0  0  0  0  0  0  0
    7.6502  -23.8308  -82.0959 O   0  0  0  0  0  0  0  0  0  0  0  0
    9.2666  -24.0443  -78.8979 O   0  5  0  0  0  0  0  0  0  0  0  0
    3.6605  -29.0012  -79.1221 N   0  0  0  0  0  0  0  0  0  0  0  0
    9.4429  -25.4758  -80.9450 O   0  0  0  0  0  0  0  0  0  0  0  0
   10.5145  -23.1328  -80.8527 O   0  0  0  0  0  0  0  0  0  0  0  0
    3.6617  -27.6991  -78.6859 C   0  0  1  0  0  0  0  0  0  0  0  0
    4.9649  -27.1781  -78.6586 C   0  0  2  0  0  0  0  0  0  0  0  0
    5.5724  -25.8451  -78.2972 C   0  0  0  0  0  0  0  0  0  0  0  0
    6.0063  -25.0734  -79.5480 C   0  0  0  0  0  0  0  0  0  0  0  0
    7.2040  -25.6421  -80.0629 O   0  0  0  0  0  0  0  0  0  0  0  0
  1 11  1  0  0  0  0
  3 13  1  6  0  0  0
  3 17  2  0  0  0  0
  3 20  1  0  0  0  0
  3 26  1  0  0  0  0
  4 14  1  1  0  0  0
  4 18  1  0  0  0  0
  4 21  2  0  0  0  0
  4 20  1  0  0  0  0
  5 19  1  0  0  0  0
  5  7  1  0  0  0  0
  6  7  2  0  0  0  0
  6 12  1  0  0  0  0
  7  8  1  0  0  0  0
  8  9  1  0  0  0  0
  8 10  2  0  0  0  0
 10 11  1  0  0  0  0
 11 12  2  0  0  0  0
 15 23  1  0  0  0  0
 15 16  1  0  0  0  0
 16 19  1  0  0  0  0
 19 22  1  0  0  0  0
 22  2  1  6  0  0  0
 22 23  1  0  0  0  0
 23 24  1  6  0  0  0
 24 25  1  0  0  0  0
 25 26  1  0  0  0  0
M  CHG  2  13  -1  18  -1
M  END
>  <CHROM.1>
166.94171803,-113.73018919,-99.92309728,173.06535922,73.94433602,-75.37673833
174.84084495,-102.79468264,5.47714650,-26.81017427,-80.40316087,3.02942315
0.46491296,1.98185544

>  <Name>
ligand

>  <RI>
0

>  <Rbt.Current_Directory>
/home/itssahil/PROJECTS/Mol_Feturizer/New_Systems/rnas/2CKY

>  <Rbt.Executable>
rbdock ($Id: //depot/dev/client3/rdock/2013.1/src/exe/rbdock.cxx#4 $)

>  <Rbt.Library>
libRbt.so (2013.1, Build901 2013/11/27)

>  <Rbt.Parameter_File>
/export/apps/rDock/src/rDock_2013.1_src/data/scripts/dock_solv.prm

>  <Rbt.Receptor>
prm/blind_docking_100.prm

>  <SCORE>
-21.0213

>  <SCORE.INTER>
-15.9036

>  <SCORE.INTER.CONST>
1

>  <SCORE.INTER.POLAR>
0

>  <SCORE.INTER.ROT>
8

>  <SCORE.INTER.SOLV>
11.5086

>  <SCORE.INTER.VDW>
-23.3719

>  <SCORE.INTER.norm>
-0.611678

>  <SCORE.INTRA>
-5.11769

>  <SCORE.INTRA.DIHEDRAL>
-8.34963

>  <SCORE.INTRA.DIHEDRAL.0>
16.4846

>  <SCORE.INTRA.POLAR>
0

>  <SCORE.INTRA.POLAR.0>
0

>  <SCORE.INTRA.REPUL>
0

>  <SCORE.INTRA.REPUL.0>
0

>  <SCORE.INTRA.SOLV>
2.2438

>  <SCORE.INTRA.SOLV.lig_0>
-82.6983

>  <SCORE.INTRA.VDW>
-2.06478

>  <SCORE.INTRA.VDW.0>
-2.11466

>  <SCORE.INTRA.norm>
-0.196834

>  <SCORE.RESTR>
0

>  <SCORE.RESTR.CAVITY>
0

>  <SCORE.RESTR.norm>
0

>  <SCORE.SYSTEM>
0

>  <SCORE.SYSTEM.CONST>
0

>  <SCORE.SYSTEM.DIHEDRAL>
0

>  <SCORE.SYSTEM.SOLV>
0

>  <SCORE.SYSTEM.norm>
0

>  <SCORE.heavy>
26

>  <SCORE.norm>
-0.808512

>  <RMSD>
18.889

$$$$
ligand
 OpenBabel11021811423D
libRbt.so/2013.1/901 2013/11/27
 26 27  0  0  0  0  0  0  0  0999 V2000
    9.5817  -32.8009  -88.7519 C   0  0  0  0  0  0  0  0  0  0  0  0
    2.1649  -30.9172  -86.2094 C   0  0  0  0  0  0  0  0  0  0  0  0
    3.6368  -30.4210  -82.1959 P   0  0  2  0  0  0  0  0  0  0  0  0
    3.5600  -29.6020  -79.5512 P   0  0  2  0  0  0  0  0  0  0  0  0
    4.1330  -31.0201  -88.6726 C   0  0  0  0  0  0  0  0  0  0  0  0
    6.3988  -31.1274  -89.6802 C   0  0  0  0  0  0  0  0  0  0  0  0
    5.5458  -31.5326  -88.6618 C   0  0  0  0  0  0  0  0  0  0  0  0
    6.0489  -32.3509  -87.6461 C   0  0  0  0  0  0  0  0  0  0  0  0
    5.3300  -32.7911  -86.6131 N   0  0  0  0  0  0  0  0  0  0  0  0
    7.3613  -32.7438  -87.6968 N   0  0  0  0  0  0  0  0  0  0  0  0
    8.1715  -32.3448  -88.7223 C   0  0  0  0  0  0  0  0  0  0  0  0
    7.7141  -31.5382  -89.7147 N   0  0  0  0  0  0  0  0  0  0  0  0
    2.6583  -31.5714  -82.3263 O   0  5  0  0  0  0  0  0  0  0  0  0
    3.2529  -31.0258  -79.1449 O   0  0  0  0  0  0  0  0  0  0  0  0
    4.0277  -27.5346  -86.8813 S   0  0  0  0  0  0  0  0  0  0  0  0
    4.4867  -28.6686  -87.9580 C   0  0  0  0  0  0  0  0  0  0  0  0
    5.0097  -31.0493  -81.9718 O   0  0  0  0  0  0  0  0  0  0  0  0
    2.7965  -28.6000  -78.7095 O   0  5  0  0  0  0  0  0  0  0  0  0
    3.8862  -29.9025  -87.7931 N   0  0  0  0  0  0  0  0  0  0  0  0
    3.0625  -29.4323  -81.0562 O   0  0  0  0  0  0  0  0  0  0  0  0
    5.0533  -29.3824  -79.4189 O   0  0  0  0  0  0  0  0  0  0  0  0
    3.0251  -29.8332  -86.7258 C   0  0  1  0  0  0  0  0  0  0  0  0
    3.0315  -28.5504  -86.1557 C   0  0  2  0  0  0  0  0  0  0  0  0
    2.3054  -27.8897  -85.0100 C   0  0  0  0  0  0  0  0  0  0  0  0
    2.1192  -28.8574  -83.8364 C   0  0  0  0  0  0  0  0  0  0  0  0
    3.3846  -29.3765  -83.4461 O   0  0  0  0  0  0  0  0  0  0  0  0
  1 11  1  0  0  0  0
  3 13  1  6  0  0  0
  3 17  2  0  0  0  0
  3 20  1  0  0  0  0
  3 26  1  0  0  0  0
  4 14  1  1  0  0  0
  4 18  1  0  0  0  0
  4 21  2  0  0  0  0
  4 20  1  0  0  0  0
  5 19  1  0  0  0  0
  5  7  1  0  0  0  0
  6  7  2  0  0  0  0
  6 12  1  0  0  0  0
  7  8  1  0  0  0  0
  8  9  1  0  0  0  0
  8 10  2  0  0  0  0
 10 11  1  0  0  0  0
 11 12  2  0  0  0  0
 15 23  1  0  0  0  0
 15 16  1  0  0  0  0
 16 19  1  0  0  0  0
 19 22  1  0  0  0  0
 22  2  1  6  0  0  0
 22 23  1  0  0  0  0
 23 24  1  6  0  0  0
 24 25  1  0  0  0  0
 25 26  1  0  0  0  0
M  CHG  2  13  -1  18  -1
M  END
>  <CHROM.1>
93.91239499,64.14625191,-99.15393462,-56.76011223,-142.98666645,55.27507382
178.28251328,49.55408976,4.38318759,-30.24842526,-84.67520537,-1.09782608
-0.74516680,1.71133791

>  <Name>
ligand

>  <RI>
0

>  <Rbt.Current_Directory>
/home/itssahil/PROJECTS/Mol_Feturizer/New_Systems/rnas/2CKY

>  <Rbt.Executable>
rbdock ($Id: //depot/dev/client3/rdock/2013.1/src/exe/rbdock.cxx#4 $)

>  <Rbt.Library>
libRbt.so (2013.1, Build901 2013/11/27)

>  <Rbt.Parameter_File>
/export/apps/rDock/src/rDock_2013.1_src/data/scripts/dock_solv.prm

>  <Rbt.Receptor>
prm/blind_docking_100.prm

>  <SCORE>
-18.4099

>  <SCORE.INTER>
-13.0618

>  <SCORE.INTER.CONST>
1

>  <SCORE.INTER.POLAR>
0

>  <SCORE.INTER.ROT>
8

>  <SCORE.INTER.SOLV>
8.31494

>  <SCORE.INTER.VDW>
-20.4128

>  <SCORE.INTER.norm>
-0.502377

>  <SCORE.INTRA>
-5.34812

>  <SCORE.INTRA.DIHEDRAL>
-10.379

>  <SCORE.INTRA.DIHEDRAL.0>
16.4846

>  <SCORE.INTRA.POLAR>
0

>  <SCORE.INTRA.POLAR.0>
0

>  <SCORE.INTRA.REPUL>
0

>  <SCORE.INTRA.REPUL.0>
0

>  <SCORE.INTRA.SOLV>
2.0466

>  <SCORE.INTRA.SOLV.lig_0>
-82.6983

>  <SCORE.INTRA.VDW>
-1.18191

>  <SCORE.INTRA.VDW.0>
-2.11466

>  <SCORE.INTRA.norm>
-0.205697

>  <SCORE.RESTR>
0

>  <SCORE.RESTR.CAVITY>
0

>  <SCORE.RESTR.norm>
0

>  <SCORE.SYSTEM>
0

>  <SCORE.SYSTEM.CONST>
0

>  <SCORE.SYSTEM.DIHEDRAL>
0

>  <SCORE.SYSTEM.SOLV>
0

>  <SCORE.SYSTEM.norm>
0

>  <SCORE.heavy>
26

>  <SCORE.norm>
-0.708074

>  <RMSD>
18.912

$$$$
ligand
 OpenBabel11021811423D
libRbt.so/2013.1/901 2013/11/27
 26 27  0  0  0  0  0  0  0  0999 V2000
    9.6718  -24.7439  -78.9578 C   0  0  0  0  0  0  0  0  0  0  0  0
    4.2189  -27.1611  -80.6621 C   0  0  0  0  0  0  0  0  0  0  0  0
    0.1047  -29.4363  -82.2867 P   0  0  2  0  0  0  0  0  0  0  0  0
    1.4309  -30.2567  -84.5755 P   0  0  2  0  0  0  0  0  0  0  0  0
    6.6222  -29.1896  -80.9075 C   0  0  0  0  0  0  0  0  0  0  0  0
    7.6786  -27.8750  -79.0864 C   0  0  0  0  0  0  0  0  0  0  0  0
    7.4056  -27.9941  -80.4429 C   0  0  0  0  0  0  0  0  0  0  0  0
    7.9144  -27.0321  -81.3204 C   0  0  0  0  0  0  0  0  0  0  0  0
    7.7293  -27.0492  -82.6407 N   0  0  0  0  0  0  0  0  0  0  0  0
    8.6494  -25.9916  -80.8137 N   0  0  0  0  0  0  0  0  0  0  0  0
    8.8850  -25.8904  -79.4715 C   0  0  0  0  0  0  0  0  0  0  0  0
    8.4157  -26.8179  -78.5973 N   0  0  0  0  0  0  0  0  0  0  0  0
   -1.1957  -30.1697  -82.0237 O   0  5  0  0  0  0  0  0  0  0  0  0
    0.1100  -30.1113  -85.2970 O   0  0  0  0  0  0  0  0  0  0  0  0
    3.6160  -30.5530  -78.7927 S   0  0  0  0  0  0  0  0  0  0  0  0
    5.0695  -30.5521  -79.5299 C   0  0  0  0  0  0  0  0  0  0  0  0
   -0.2691  -28.1505  -83.0194 O   0  0  0  0  0  0  0  0  0  0  0  0
    2.1955  -31.4784  -85.0430 O   0  5  0  0  0  0  0  0  0  0  0  0
    5.3671  -29.3952  -80.2250 N   0  0  0  0  0  0  0  0  0  0  0  0
    1.0944  -30.4711  -83.0321 O   0  0  0  0  0  0  0  0  0  0  0  0
    2.2409  -28.9980  -84.8103 O   0  0  0  0  0  0  0  0  0  0  0  0
    4.3157  -28.5216  -80.0952 C   0  0  1  0  0  0  0  0  0  0  0  0
    3.2935  -29.0765  -79.3092 C   0  0  2  0  0  0  0  0  0  0  0  0
    1.9471  -28.6015  -78.8213 C   0  0  0  0  0  0  0  0  0  0  0  0
    1.0138  -28.2753  -79.9922 C   0  0  0  0  0  0  0  0  0  0  0  0
    0.9675  -29.3832  -80.8830 O   0  0  0  0  0  0  0  0  0  0  0  0
  1 11  1  0  0  0  0
  3 13  1  1  0  0  0
  3 17  2  0  0  0  0
  3 20  1  0  0  0  0
  3 26  1  0  0  0  0
  4 14  1  6  0  0  0
  4 18  1  0  0  0  0
  4 21  2  0  0  0  0
  4 20  1  0  0  0  0
  5 19  1  0  0  0  0
  5  7  1  0  0  0  0
  6  7  2  0  0  0  0
  6 12  1  0  0  0  0
  7  8  1  0  0  0  0
  8  9  1  0  0  0  0
  8 10  2  0  0  0  0
 10 11  1  0  0  0  0
 11 12  2  0  0  0  0
 15 23  1  0  0  0  0
 15 16  1  0  0  0  0
 16 19  1  0  0  0  0
 19 22  1  0  0  0  0
 22  2  1  1  0  0  0
 22 23  1  0  0  0  0
 23 24  1  1  0  0  0
 24 25  1  0  0  0  0
 25 26  1  0  0  0  0
M  CHG  2  13  -1  18  -1
M  END
>  <CHROM.1>
108.84988985,-121.15603523,53.34583020,-51.48581711,-120.01885818,52.11432375
-178.72965946,-98.43596839,3.69805713,-28.81454802,-81.36969498,-0.40449538
-0.38697108,-1.55877004

>  <Name>
ligand

>  <RI>
0

>  <Rbt.Current_Directory>
/home/itssahil/PROJECTS/Mol_Feturizer/New_Systems/rnas/2CKY

>  <Rbt.Executable>
rbdock ($Id: //depot/dev/client3/rdock/2013.1/src/exe/rbdock.cxx#4 $)

>  <Rbt.Library>
libRbt.so (2013.1, Build901 2013/11/27)

>  <Rbt.Parameter_File>
/export/apps/rDock/src/rDock_2013.1_src/data/scripts/dock_solv.prm

>  <Rbt.Receptor>
prm/blind_docking_100.prm

>  <SCORE>
-21.4602

>  <SCORE.INTER>
-15.4344

>  <SCORE.INTER.CONST>
1

>  <SCORE.INTER.POLAR>
0

>  <SCORE.INTER.ROT>
8

>  <SCORE.INTER.SOLV>
9.93338

>  <SCORE.INTER.VDW>
-22.534

>  <SCORE.INTER.norm>
-0.59363

>  <SCORE.INTRA>
-6.02582

>  <SCORE.INTRA.DIHEDRAL>
-8.0888

>  <SCORE.INTRA.DIHEDRAL.0>
16.4846

>  <SCORE.INTRA.POLAR>
0

>  <SCORE.INTRA.POLAR.0>
0

>  <SCORE.INTRA.REPUL>
0

>  <SCORE.INTRA.REPUL.0>
0

>  <SCORE.INTRA.SOLV>
0.101853

>  <SCORE.INTRA.SOLV.lig_0>
-82.6983

>  <SCORE.INTRA.VDW>
-2.03234

>  <SCORE.INTRA.VDW.0>
-2.11466

>  <SCORE.INTRA.norm>
-0.231762

>  <SCORE.RESTR>
0

>  <SCORE.RESTR.CAVITY>
0

>  <SCORE.RESTR.norm>
0

>  <SCORE.SYSTEM>
0

>  <SCORE.SYSTEM.CONST>
0

>  <SCORE.SYSTEM.DIHEDRAL>
0

>  <SCORE.SYSTEM.SOLV>
0

>  <SCORE.SYSTEM.norm>
0

>  <SCORE.heavy>
26

>  <SCORE.norm>
-0.825392

>  <RMSD>
18.928

$$$$
ligand
 OpenBabel11021811423D
libRbt.so/2013.1/901 2013/11/27
 26 27  0  0  0  0  0  0  0  0999 V2000
   -0.4531  -27.4656  -84.8920 C   0  0  0  0  0  0  0  0  0  0  0  0
    5.6392  -25.3456  -81.7521 C   0  0  0  0  0  0  0  0  0  0  0  0
    3.8474  -26.3909  -77.9769 P   0  0  2  0  0  0  0  0  0  0  0  0
    1.7911  -28.2402  -77.8266 P   0  0  2  0  0  0  0  0  0  0  0  0
    5.2318  -26.8364  -84.5021 C   0  0  0  0  0  0  0  0  0  0  0  0
    2.9513  -25.9841  -84.9852 C   0  0  0  0  0  0  0  0  0  0  0  0
    3.7446  -27.0441  -84.5656 C   0  0  0  0  0  0  0  0  0  0  0  0
    3.1358  -28.2683  -84.2743 C   0  0  0  0  0  0  0  0  0  0  0  0
    3.7946  -29.3571  -83.8765 N   0  0  0  0  0  0  0  0  0  0  0  0
    1.7745  -28.3794  -84.3926 N   0  0  0  0  0  0  0  0  0  0  0  0
    1.0178  -27.3128  -84.7890 C   0  0  0  0  0  0  0  0  0  0  0  0
    1.5834  -26.1159  -85.0925 N   0  0  0  0  0  0  0  0  0  0  0  0
    4.2493  -26.4571  -76.5168 O   0  5  0  0  0  0  0  0  0  0  0  0
    1.6799  -29.7420  -77.9631 O   0  0  0  0  0  0  0  0  0  0  0  0
    7.1390  -28.9663  -81.8198 S   0  0  0  0  0  0  0  0  0  0  0  0
    6.4330  -28.6085  -83.2445 C   0  0  0  0  0  0  0  0  0  0  0  0
    2.9463  -25.1670  -78.1184 O   0  0  0  0  0  0  0  0  0  0  0  0
    0.7682  -27.5206  -78.6819 O   0  5  0  0  0  0  0  0  0  0  0  0
    5.8660  -27.3499  -83.3115 N   0  0  0  0  0  0  0  0  0  0  0  0
    3.2333  -27.8314  -78.3692 O   0  0  0  0  0  0  0  0  0  0  0  0
    1.6120  -27.8819  -76.3654 O   0  0  0  0  0  0  0  0  0  0  0  0
    6.0651  -26.7135  -82.1112 C   0  0  1  0  0  0  0  0  0  0  0  0
    6.7708  -27.5339  -81.2169 C   0  0  2  0  0  0  0  0  0  0  0  0
    7.2796  -27.3806  -79.8048 C   0  0  0  0  0  0  0  0  0  0  0  0
    6.1584  -27.5948  -78.7824 C   0  0  0  0  0  0  0  0  0  0  0  0
    5.2045  -26.5464  -78.8998 O   0  0  0  0  0  0  0  0  0  0  0  0
  1 11  1  0  0  0  0
  3 13  1  1  0  0  0
  3 17  2  0  0  0  0
  3 20  1  0  0  0  0
  3 26  1  0  0  0  0
  4 14  1  6  0  0  0
  4 18  1  0  0  0  0
  4 21  2  0  0  0  0
  4 20  1  0  0  0  0
  5 19  1  0  0  0  0
  5  7  1  0  0  0  0
  6  7  2  0  0  0  0
  6 12  1  0  0  0  0
  7  8  1  0  0  0  0
  8  9  1  0  0  0  0
  8 10  2  0  0  0  0
 10 11  1  0  0  0  0
 11 12  2  0  0  0  0
 15 23  1  0  0  0  0
 15 16  1  0  0  0  0
 16 19  1  0  0  0  0
 19 22  1  0  0  0  0
 22  2  1  6  0  0  0
 22 23  1  0  0  0  0
 23 24  1  6  0  0  0
 24 25  1  0  0  0  0
 25 26  1  0  0  0  0
M  CHG  2  13  -1  18  -1
M  END
>  <CHROM.1>
72.94012680,94.02052510,135.77253550,-162.12694022,-100.76163793,-66.56495519
-179.48014343,52.53289876,3.83148980,-27.44207681,-80.87570684,1.50421825
-0.00800312,-1.58752738

>  <Name>
ligand

>  <RI>
0

>  <Rbt.Current_Directory>
/home/itssahil/PROJECTS/Mol_Feturizer/New_Systems/rnas/2CKY

>  <Rbt.Executable>
rbdock ($Id: //depot/dev/client3/rdock/2013.1/src/exe/rbdock.cxx#4 $)

>  <Rbt.Library>
libRbt.so (2013.1, Build901 2013/11/27)

>  <Rbt.Parameter_File>
/export/apps/rDock/src/rDock_2013.1_src/data/scripts/dock_solv.prm

>  <Rbt.Receptor>
prm/blind_docking_100.prm

>  <SCORE>
-20.4333

>  <SCORE.INTER>
-15.0001

>  <SCORE.INTER.CONST>
1

>  <SCORE.INTER.POLAR>
0

>  <SCORE.INTER.ROT>
8

>  <SCORE.INTER.SOLV>
15.0843

>  <SCORE.INTER.VDW>
-23.9615

>  <SCORE.INTER.norm>
-0.576926

>  <SCORE.INTRA>
-5.4332

>  <SCORE.INTRA.DIHEDRAL>
-10.8991

>  <SCORE.INTRA.DIHEDRAL.0>
16.4846

>  <SCORE.INTRA.POLAR>
0

>  <SCORE.INTRA.POLAR.0>
0

>  <SCORE.INTRA.REPUL>
0

>  <SCORE.INTRA.REPUL.0>
0

>  <SCORE.INTRA.SOLV>
3.91162

>  <SCORE.INTRA.SOLV.lig_0>
-82.6983

>  <SCORE.INTRA.VDW>
-1.93948

>  <SCORE.INTRA.VDW.0>
-2.11466

>  <SCORE.INTRA.norm>
-0.208969

>  <SCORE.RESTR>
0

>  <SCORE.RESTR.CAVITY>
0

>  <SCORE.RESTR.norm>
0

>  <SCORE.SYSTEM>
0

>  <SCORE.SYSTEM.CONST>
0

>  <SCORE.SYSTEM.DIHEDRAL>
0

>  <SCORE.SYSTEM.SOLV>
0

>  <SCORE.SYSTEM.norm>
0

>  <SCORE.heavy>
26

>  <SCORE.norm>
-0.785895

>  <RMSD>
18.975

$$$$
ligand
 OpenBabel11021811423D
libRbt.so/2013.1/901 2013/11/27
 26 27  0  0  0  0  0  0  0  0999 V2000
   10.1538  -24.0946  -79.9858 C   0  0  0  0  0  0  0  0  0  0  0  0
    4.9047  -30.7051  -82.5663 C   0  0  0  0  0  0  0  0  0  0  0  0
    0.3710  -29.3144  -80.8905 P   0  0  2  0  0  0  0  0  0  0  0  0
    2.7104  -29.4053  -79.4108 P   0  0  2  0  0  0  0  0  0  0  0  0
    7.0661  -28.6989  -81.4461 C   0  0  0  0  0  0  0  0  0  0  0  0
    8.5909  -26.8134  -81.9756 C   0  0  0  0  0  0  0  0  0  0  0  0
    7.8789  -27.5125  -81.0095 C   0  0  0  0  0  0  0  0  0  0  0  0
    7.9042  -27.0538  -79.6892 C   0  0  0  0  0  0  0  0  0  0  0  0
    7.2511  -27.6337  -78.6817 N   0  0  0  0  0  0  0  0  0  0  0  0
    8.6455  -25.9414  -79.3852 N   0  0  0  0  0  0  0  0  0  0  0  0
    9.3517  -25.2857  -80.3539 C   0  0  0  0  0  0  0  0  0  0  0  0
    9.3341  -25.6999  -81.6473 N   0  0  0  0  0  0  0  0  0  0  0  0
    0.1006  -28.1054  -80.0169 O   0  5  0  0  0  0  0  0  0  0  0  0
    3.2237  -28.3369  -80.3497 O   0  0  0  0  0  0  0  0  0  0  0  0
    4.1467  -26.9491  -83.3913 S   0  0  0  0  0  0  0  0  0  0  0  0
    5.5199  -27.0824  -82.5239 C   0  0  0  0  0  0  0  0  0  0  0  0
   -0.9782  -29.9929  -81.1128 O   0  0  0  0  0  0  0  0  0  0  0  0
    3.7787  -30.4296  -79.0866 O   0  5  0  0  0  0  0  0  0  0  0  0
    5.8644  -28.3753  -82.1772 N   0  0  0  0  0  0  0  0  0  0  0  0
    1.5385  -30.1694  -80.1749 O   0  0  0  0  0  0  0  0  0  0  0  0
    2.2178  -28.7296  -78.1472 O   0  0  0  0  0  0  0  0  0  0  0  0
    4.9196  -29.2329  -82.6844 C   0  0  1  0  0  0  0  0  0  0  0  0
    3.9241  -28.5306  -83.3818 C   0  0  2  0  0  0  0  0  0  0  0  0
    2.6807  -28.9189  -84.1432 C   0  0  0  0  0  0  0  0  0  0  0  0
    1.6933  -29.6757  -83.2484 C   0  0  0  0  0  0  0  0  0  0  0  0
    1.2931  -28.8378  -82.1712 O   0  0  0  0  0  0  0  0  0  0  0  0
  1 11  1  0  0  0  0
  3 13  1  1  0  0  0
  3 17  2  0  0  0  0
  3 20  1  0  0  0  0
  3 26  1  0  0  0  0
  4 14  1  6  0  0  0
  4 18  1  0  0  0  0
  4 21  2  0  0  0  0
  4 20  1  0  0  0  0
  5 19  1  0  0  0  0
  5  7  1  0  0  0  0
  6  7  2  0  0  0  0
  6 12  1  0  0  0  0
  7  8  1  0  0  0  0
  8  9  1  0  0  0  0
  8 10  2  0  0  0  0
 10 11  1  0  0  0  0
 11 12  2  0  0  0  0
 15 23  1  0  0  0  0
 15 16  1  0  0  0  0
 16 19  1  0  0  0  0
 19 22  1  0  0  0  0
 22  2  1  6  0  0  0
 22 23  1  0  0  0  0
 23 24  1  6  0  0  0
 24 25  1  0  0  0  0
 25 26  1  0  0  0  0
M  CHG  2  13  -1  18  -1
M  END
>  <CHROM.1>
-36.11668790,3.71457540,-72.75418788,-49.06982592,-121.20531587,61.23721824
-172.93904922,-176.49473413,4.32069911,-28.24263455,-81.10787046,0.01598916
0.40383531,1.61195905

>  <Name>
ligand

>  <RI>
0

>  <Rbt.Current_Directory>
/home/itssahil/PROJECTS/Mol_Feturizer/New_Systems/rnas/2CKY

>  <Rbt.Executable>
rbdock ($Id: //depot/dev/client3/rdock/2013.1/src/exe/rbdock.cxx#4 $)

>  <Rbt.Library>
libRbt.so (2013.1, Build901 2013/11/27)

>  <Rbt.Parameter_File>
/export/apps/rDock/src/rDock_2013.1_src/data/scripts/dock_solv.prm

>  <Rbt.Receptor>
prm/blind_docking_100.prm

>  <SCORE>
-19.1704

>  <SCORE.INTER>
-10.6554

>  <SCORE.INTER.CONST>
1

>  <SCORE.INTER.POLAR>
0

>  <SCORE.INTER.ROT>
8

>  <SCORE.INTER.SOLV>
17.0172

>  <SCORE.INTER.VDW>
-21.7094

>  <SCORE.INTER.norm>
-0.409825

>  <SCORE.INTRA>
-8.51495

>  <SCORE.INTRA.DIHEDRAL>
-10.7992

>  <SCORE.INTRA.DIHEDRAL.0>
16.4846

>  <SCORE.INTRA.POLAR>
0

>  <SCORE.INTRA.POLAR.0>
0

>  <SCORE.INTRA.REPUL>
0

>  <SCORE.INTRA.REPUL.0>
0

>  <SCORE.INTRA.SOLV>
0.404164

>  <SCORE.INTRA.SOLV.lig_0>
-82.6983

>  <SCORE.INTRA.VDW>
-3.31746

>  <SCORE.INTRA.VDW.0>
-2.11466

>  <SCORE.INTRA.norm>
-0.327498

>  <SCORE.RESTR>
0

>  <SCORE.RESTR.CAVITY>
0

>  <SCORE.RESTR.norm>
0

>  <SCORE.SYSTEM>
0

>  <SCORE.SYSTEM.CONST>
0

>  <SCORE.SYSTEM.DIHEDRAL>
0

>  <SCORE.SYSTEM.SOLV>
0

>  <SCORE.SYSTEM.norm>
0

>  <SCORE.heavy>
26

>  <SCORE.norm>
-0.737323

>  <RMSD>
19.036

$$$$
ligand
 OpenBabel11021811423D
libRbt.so/2013.1/901 2013/11/27
 26 27  0  0  0  0  0  0  0  0999 V2000
    3.0382  -24.0336  -76.4064 C   0  0  0  0  0  0  0  0  0  0  0  0
   -0.2009  -29.5696  -80.1817 C   0  0  0  0  0  0  0  0  0  0  0  0
    3.6214  -28.3534  -83.6090 P   0  0  2  0  0  0  0  0  0  0  0  0
    5.8232  -29.8730  -82.8924 P   0  0  2  0  0  0  0  0  0  0  0  0
    1.3839  -29.4208  -77.4582 C   0  0  0  0  0  0  0  0  0  0  0  0
    2.7081  -27.3853  -77.9717 C   0  0  0  0  0  0  0  0  0  0  0  0
    1.8043  -28.0165  -77.1269 C   0  0  0  0  0  0  0  0  0  0  0  0
    1.2850  -27.3045  -76.0416 C   0  0  0  0  0  0  0  0  0  0  0  0
    0.4034  -27.8003  -75.1728 N   0  0  0  0  0  0  0  0  0  0  0  0
    1.6980  -26.0140  -75.8334 N   0  0  0  0  0  0  0  0  0  0  0  0
    2.6037  -25.4260  -76.6707 C   0  0  0  0  0  0  0  0  0  0  0  0
    3.1139  -26.0883  -77.7411 N   0  0  0  0  0  0  0  0  0  0  0  0
    3.4426  -28.3709  -85.1142 O   0  5  0  0  0  0  0  0  0  0  0  0
    6.0711  -29.1462  -81.5897 O   0  0  0  0  0  0  0  0  0  0  0  0
    3.4466  -30.9877  -80.4008 S   0  0  0  0  0  0  0  0  0  0  0  0
    3.1295  -30.4435  -78.8977 C   0  0  0  0  0  0  0  0  0  0  0  0
    4.4142  -27.0897  -83.2861 O   0  0  0  0  0  0  0  0  0  0  0  0
    6.5416  -29.2117  -84.0508 O   0  5  0  0  0  0  0  0  0  0  0  0
    1.8641  -29.9147  -78.7266 N   0  0  0  0  0  0  0  0  0  0  0  0
    4.2596  -29.7750  -83.1872 O   0  0  0  0  0  0  0  0  0  0  0  0
    6.2811  -31.3082  -82.7296 O   0  0  0  0  0  0  0  0  0  0  0  0
    1.1871  -30.0006  -79.9182 C   0  0  1  0  0  0  0  0  0  0  0  0
    1.9862  -30.5899  -80.9105 C   0  0  2  0  0  0  0  0  0  0  0  0
    1.7896  -30.9507  -82.3623 C   0  0  0  0  0  0  0  0  0  0  0  0
    1.3144  -29.7428  -83.1769 C   0  0  0  0  0  0  0  0  0  0  0  0
    2.1560  -28.6287  -82.9058 O   0  0  0  0  0  0  0  0  0  0  0  0
  1 11  1  0  0  0  0
  3 13  1  6  0  0  0
  3 17  2  0  0  0  0
  3 20  1  0  0  0  0
  3 26  1  0  0  0  0
  4 14  1  1  0  0  0
  4 18  1  0  0  0  0
  4 21  2  0  0  0  0
  4 20  1  0  0  0  0
  5 19  1  0  0  0  0
  5  7  1  0  0  0  0
  6  7  2  0  0  0  0
  6 12  1  0  0  0  0
  7  8  1  0  0  0  0
  8  9  1  0  0  0  0
  8 10  2  0  0  0  0
 10 11  1  0  0  0  0
 11 12  2  0  0  0  0
 15 23  1  0  0  0  0
 15 16  1  0  0  0  0
 16 19  1  0  0  0  0
 19 22  1  0  0  0  0
 22  2  1  1  0  0  0
 22 23  1  0  0  0  0
 23 24  1  1  0  0  0
 24 25  1  0  0  0  0
 25 26  1  0  0  0  0
M  CHG  2  13  -1  18  -1
M  END
>  <CHROM.1>
100.62456615,82.44470221,-6.67533118,70.68788480,-126.55376199,49.66335864
81.90367624,54.50492808,3.14411788,-28.81866758,-80.58728578,-2.11085047
-0.76485761,-2.32015479

>  <Name>
ligand

>  <RI>
0

>  <Rbt.Current_Directory>
/home/itssahil/PROJECTS/Mol_Feturizer/New_Systems/rnas/2CKY

>  <Rbt.Executable>
rbdock ($Id: //depot/dev/client3/rdock/2013.1/src/exe/rbdock.cxx#4 $)

>  <Rbt.Library>
libRbt.so (2013.1, Build901 2013/11/27)

>  <Rbt.Parameter_File>
/export/apps/rDock/src/rDock_2013.1_src/data/scripts/dock_solv.prm

>  <Rbt.Receptor>
prm/blind_docking_100.prm

>  <SCORE>
-14.8522

>  <SCORE.INTER>
-9.31753

>  <SCORE.INTER.CONST>
1

>  <SCORE.INTER.POLAR>
0

>  <SCORE.INTER.ROT>
8

>  <SCORE.INTER.SOLV>
12.139

>  <SCORE.INTER.VDW>
-19.1914

>  <SCORE.INTER.norm>
-0.358367

>  <SCORE.INTRA>
-5.53469

>  <SCORE.INTRA.DIHEDRAL>
-7.41687

>  <SCORE.INTRA.DIHEDRAL.0>
16.4846

>  <SCORE.INTRA.POLAR>
0

>  <SCORE.INTRA.POLAR.0>
0

>  <SCORE.INTRA.REPUL>
0

>  <SCORE.INTRA.REPUL.0>
0

>  <SCORE.INTRA.SOLV>
1.26279

>  <SCORE.INTRA.SOLV.lig_0>
-82.6983

>  <SCORE.INTRA.VDW>
-2.45765

>  <SCORE.INTRA.VDW.0>
-2.11466

>  <SCORE.INTRA.norm>
-0.212873

>  <SCORE.RESTR>
0

>  <SCORE.RESTR.CAVITY>
0

>  <SCORE.RESTR.norm>
0

>  <SCORE.SYSTEM>
0

>  <SCORE.SYSTEM.CONST>
0

>  <SCORE.SYSTEM.DIHEDRAL>
0

>  <SCORE.SYSTEM.SOLV>
0

>  <SCORE.SYSTEM.norm>
0

>  <SCORE.heavy>
26

>  <SCORE.norm>
-0.571239

>  <RMSD>
19.103

$$$$
ligand
 OpenBabel11021811423D
libRbt.so/2013.1/901 2013/11/27
 26 27  0  0  0  0  0  0  0  0999 V2000
    9.1529  -33.8919  -91.7338 C   0  0  0  0  0  0  0  0  0  0  0  0
    7.4017  -31.3281  -84.2872 C   0  0  0  0  0  0  0  0  0  0  0  0
    2.7567  -30.2433  -86.1852 P   0  0  2  0  0  0  0  0  0  0  0  0
    3.7133  -27.6768  -86.5954 P   0  0  2  0  0  0  0  0  0  0  0  0
    8.9354  -33.4716  -86.0206 C   0  0  0  0  0  0  0  0  0  0  0  0
    8.0766  -32.9830  -88.2974 C   0  0  0  0  0  0  0  0  0  0  0  0
    9.0212  -33.6314  -87.5125 C   0  0  0  0  0  0  0  0  0  0  0  0
   10.0380  -34.3561  -88.1412 C   0  0  0  0  0  0  0  0  0  0  0  0
   11.0049  -35.0070  -87.4938 N   0  0  0  0  0  0  0  0  0  0  0  0
   10.0603  -34.4207  -89.5104 N   0  0  0  0  0  0  0  0  0  0  0  0
    9.1055  -33.7882  -90.2558 C   0  0  0  0  0  0  0  0  0  0  0  0
    8.1145  -33.0652  -89.6729 N   0  0  0  0  0  0  0  0  0  0  0  0
    2.5881  -30.7171  -87.6153 O   0  5  0  0  0  0  0  0  0  0  0  0
    3.6001  -27.6559  -88.1032 O   0  0  0  0  0  0  0  0  0  0  0  0
    5.3643  -34.6229  -84.8845 S   0  0  0  0  0  0  0  0  0  0  0  0
    6.8150  -34.7008  -85.6233 C   0  0  0  0  0  0  0  0  0  0  0  0
    1.3847  -29.7511  -85.7322 O   0  0  0  0  0  0  0  0  0  0  0  0
    4.8923  -26.8590  -86.1088 O   0  5  0  0  0  0  0  0  0  0  0  0
    7.6032  -33.5753  -85.4748 N   0  0  0  0  0  0  0  0  0  0  0  0
    3.9801  -29.1902  -86.1719 O   0  0  0  0  0  0  0  0  0  0  0  0
    2.4188  -27.1448  -86.0150 O   0  0  0  0  0  0  0  0  0  0  0  0
    6.9240  -32.6610  -84.7077 C   0  0  1  0  0  0  0  0  0  0  0  0
    5.6675  -33.1574  -84.3266 C   0  0  2  0  0  0  0  0  0  0  0  0
    4.5216  -32.6335  -83.4966 C   0  0  0  0  0  0  0  0  0  0  0  0
    4.0394  -31.2722  -84.0092 C   0  0  0  0  0  0  0  0  0  0  0  0
    3.5518  -31.4127  -85.3379 O   0  0  0  0  0  0  0  0  0  0  0  0
  1 11  1  0  0  0  0
  3 13  1  6  0  0  0
  3 17  2  0  0  0  0
  3 20  1  0  0  0  0
  3 26  1  0  0  0  0
  4 14  1  6  0  0  0
  4 18  1  0  0  0  0
  4 21  2  0  0  0  0
  4 20  1  0  0  0  0
  5 19  1  0  0  0  0
  5  7  1  0  0  0  0
  6  7  2  0  0  0  0
  6 12  1  0  0  0  0
  7  8  1  0  0  0  0
  8  9  1  0  0  0  0
  8 10  2  0  0  0  0
 10 11  1  0  0  0  0
 11 12  2  0  0  0  0
 15 23  1  0  0  0  0
 15 16  1  0  0  0  0
 16 19  1  0  0  0  0
 19 22  1  0  0  0  0
 22  2  1  1  0  0  0
 22 23  1  0  0  0  0
 23 24  1  1  0  0  0
 24 25  1  0  0  0  0
 25 26  1  0  0  0  0
M  CHG  2  13  -1  18  -1
M  END
>  <CHROM.1>
81.87961374,59.21813462,43.58693422,-76.23684593,-125.66013157,62.28051404
171.31164068,171.89918894,5.75943047,-31.62127598,-86.55491490,-0.24526167
0.73063675,-0.85389856

>  <Name>
ligand

>  <RI>
0

>  <Rbt.Current_Directory>
/home/itssahil/PROJECTS/Mol_Feturizer/New_Systems/rnas/2CKY

>  <Rbt.Executable>
rbdock ($Id: //depot/dev/client3/rdock/2013.1/src/exe/rbdock.cxx#4 $)

>  <Rbt.Library>
libRbt.so (2013.1, Build901 2013/11/27)

>  <Rbt.Parameter_File>
/export/apps/rDock/src/rDock_2013.1_src/data/scripts/dock_solv.prm

>  <Rbt.Receptor>
prm/blind_docking_100.prm

>  <SCORE>
-16.3413

>  <SCORE.INTER>
-9.52985

>  <SCORE.INTER.CONST>
1

>  <SCORE.INTER.POLAR>
0

>  <SCORE.INTER.ROT>
8

>  <SCORE.INTER.SOLV>
20.7819

>  <SCORE.INTER.VDW>
-22.2139

>  <SCORE.INTER.norm>
-0.366533

>  <SCORE.INTRA>
-6.81806

>  <SCORE.INTRA.DIHEDRAL>
-10.5862

>  <SCORE.INTRA.DIHEDRAL.0>
16.4846

>  <SCORE.INTRA.POLAR>
0

>  <SCORE.INTRA.POLAR.0>
0

>  <SCORE.INTRA.REPUL>
0

>  <SCORE.INTRA.REPUL.0>
0

>  <SCORE.INTRA.SOLV>
-0.00921676

>  <SCORE.INTRA.SOLV.lig_0>
-82.6983

>  <SCORE.INTRA.VDW>
-1.52037

>  <SCORE.INTRA.VDW.0>
-2.11466

>  <SCORE.INTRA.norm>
-0.262233

>  <SCORE.RESTR>
0.00662272

>  <SCORE.RESTR.CAVITY>
0.00662272

>  <SCORE.RESTR.norm>
0.00025472

>  <SCORE.SYSTEM>
0

>  <SCORE.SYSTEM.CONST>
0

>  <SCORE.SYSTEM.DIHEDRAL>
0

>  <SCORE.SYSTEM.SOLV>
0

>  <SCORE.SYSTEM.norm>
0

>  <SCORE.heavy>
26

>  <SCORE.norm>
-0.628511

>  <RMSD>
19.109

$$$$
ligand
 OpenBabel11021811423D
libRbt.so/2013.1/901 2013/11/27
 26 27  0  0  0  0  0  0  0  0999 V2000
    3.1815  -27.0857  -86.2943 C   0  0  0  0  0  0  0  0  0  0  0  0
    0.3369  -28.7712  -80.5056 C   0  0  0  0  0  0  0  0  0  0  0  0
    5.1213  -26.2700  -78.6272 P   0  0  2  0  0  0  0  0  0  0  0  0
    4.8785  -27.1633  -81.2375 P   0  0  2  0  0  0  0  0  0  0  0  0
    1.7098  -30.9518  -82.3253 C   0  0  0  0  0  0  0  0  0  0  0  0
    1.2922  -28.9040  -83.6642 C   0  0  0  0  0  0  0  0  0  0  0  0
    2.1290  -29.9782  -83.3907 C   0  0  0  0  0  0  0  0  0  0  0  0
    3.3440  -30.0780  -84.0750 C   0  0  0  0  0  0  0  0  0  0  0  0
    4.2316  -31.0551  -83.8875 N   0  0  0  0  0  0  0  0  0  0  0  0
    3.6628  -29.1250  -85.0074 N   0  0  0  0  0  0  0  0  0  0  0  0
    2.8100  -28.0899  -85.2691 C   0  0  0  0  0  0  0  0  0  0  0  0
    1.6299  -27.9594  -84.6095 N   0  0  0  0  0  0  0  0  0  0  0  0
    4.7002  -25.0553  -77.8238 O   0  5  0  0  0  0  0  0  0  0  0  0
    3.7421  -28.1440  -81.0550 O   0  0  0  0  0  0  0  0  0  0  0  0
    3.4132  -30.5207  -78.8208 S   0  0  0  0  0  0  0  0  0  0  0  0
    3.1503  -31.1272  -80.3106 C   0  0  0  0  0  0  0  0  0  0  0  0
    6.6065  -26.4781  -78.3429 O   0  0  0  0  0  0  0  0  0  0  0  0
    6.2237  -27.8039  -80.9621 O   0  5  0  0  0  0  0  0  0  0  0  0
    2.0753  -30.5747  -80.9808 N   0  0  0  0  0  0  0  0  0  0  0  0
    4.6733  -26.0101  -80.1562 O   0  0  0  0  0  0  0  0  0  0  0  0
    4.8216  -26.6295  -82.6544 O   0  0  0  0  0  0  0  0  0  0  0  0
    1.5003  -29.6203  -80.1783 C   0  0  1  0  0  0  0  0  0  0  0  0
    2.1801  -29.5145  -78.9548 C   0  0  2  0  0  0  0  0  0  0  0  0
    2.0278  -28.6590  -77.7213 C   0  0  0  0  0  0  0  0  0  0  0  0
    2.6988  -27.2935  -77.9042 C   0  0  0  0  0  0  0  0  0  0  0  0
    4.0356  -27.4797  -78.3529 O   0  0  0  0  0  0  0  0  0  0  0  0
  1 11  1  0  0  0  0
  3 13  1  1  0  0  0
  3 17  2  0  0  0  0
  3 20  1  0  0  0  0
  3 26  1  0  0  0  0
  4 14  1  1  0  0  0
  4 18  1  0  0  0  0
  4 21  2  0  0  0  0
  4 20  1  0  0  0  0
  5 19  1  0  0  0  0
  5  7  1  0  0  0  0
  6  7  2  0  0  0  0
  6 12  1  0  0  0  0
  7  8  1  0  0  0  0
  8  9  1  0  0  0  0
  8 10  2  0  0  0  0
 10 11  1  0  0  0  0
 11 12  2  0  0  0  0
 15 23  1  0  0  0  0
 15 16  1  0  0  0  0
 16 19  1  0  0  0  0
 19 22  1  0  0  0  0
 22  2  1  6  0  0  0
 22 23  1  0  0  0  0
 23 24  1  6  0  0  0
 24 25  1  0  0  0  0
 25 26  1  0  0  0  0
M  CHG  2  13  -1  18  -1
M  END
>  <CHROM.1>
-175.34556660,-101.90428416,-85.35215380,79.45694333,96.62957507,-51.41929800
-177.96000625,22.72888997,3.53536555,-28.32378295,-80.99036739,-2.05790762
0.89891567,1.60035769

>  <Name>
ligand

>  <RI>
0

>  <Rbt.Current_Directory>
/home/itssahil/PROJECTS/Mol_Feturizer/New_Systems/rnas/2CKY

>  <Rbt.Executable>
rbdock ($Id: //depot/dev/client3/rdock/2013.1/src/exe/rbdock.cxx#4 $)

>  <Rbt.Library>
libRbt.so (2013.1, Build901 2013/11/27)

>  <Rbt.Parameter_File>
/export/apps/rDock/src/rDock_2013.1_src/data/scripts/dock_solv.prm

>  <Rbt.Receptor>
prm/blind_docking_100.prm

>  <SCORE>
-21.461

>  <SCORE.INTER>
-12.1861

>  <SCORE.INTER.CONST>
1

>  <SCORE.INTER.POLAR>
0

>  <SCORE.INTER.ROT>
8

>  <SCORE.INTER.SOLV>
9.51701

>  <SCORE.INTER.VDW>
-20.2297

>  <SCORE.INTER.norm>
-0.468695

>  <SCORE.INTRA>
-9.27491

>  <SCORE.INTRA.DIHEDRAL>
-9.67689

>  <SCORE.INTRA.DIHEDRAL.0>
16.4846

>  <SCORE.INTRA.POLAR>
0

>  <SCORE.INTRA.POLAR.0>
0

>  <SCORE.INTRA.REPUL>
0

>  <SCORE.INTRA.REPUL.0>
0

>  <SCORE.INTRA.SOLV>
0.365075

>  <SCORE.INTRA.SOLV.lig_0>
-82.6983

>  <SCORE.INTRA.VDW>
-4.61901

>  <SCORE.INTRA.VDW.0>
-2.11466

>  <SCORE.INTRA.norm>
-0.356727

>  <SCORE.RESTR>
0

>  <SCORE.RESTR.CAVITY>
0

>  <SCORE.RESTR.norm>
0

>  <SCORE.SYSTEM>
0

>  <SCORE.SYSTEM.CONST>
0

>  <SCORE.SYSTEM.DIHEDRAL>
0

>  <SCORE.SYSTEM.SOLV>
0

>  <SCORE.SYSTEM.norm>
0

>  <SCORE.heavy>
26

>  <SCORE.norm>
-0.825422

>  <RMSD>
19.139

$$$$
ligand
 OpenBabel11021811423D
libRbt.so/2013.1/901 2013/11/27
 26 27  0  0  0  0  0  0  0  0999 V2000
    2.6192  -25.6798  -77.6081 C   0  0  0  0  0  0  0  0  0  0  0  0
    5.8551  -30.3661  -80.9347 C   0  0  0  0  0  0  0  0  0  0  0  0
    5.1745  -33.3111  -84.8831 P   0  0  2  0  0  0  0  0  0  0  0  0
    3.3575  -33.6341  -86.9482 P   0  0  2  0  0  0  0  0  0  0  0  0
    7.4483  -27.9233  -79.7323 C   0  0  0  0  0  0  0  0  0  0  0  0
    5.0411  -28.0426  -79.1395 C   0  0  0  0  0  0  0  0  0  0  0  0
    6.2025  -27.2825  -79.1881 C   0  0  0  0  0  0  0  0  0  0  0  0
    6.1778  -25.9798  -78.6815 C   0  0  0  0  0  0  0  0  0  0  0  0
    7.2314  -25.1629  -78.6626 N   0  0  0  0  0  0  0  0  0  0  0  0
    5.0050  -25.4864  -78.1711 N   0  0  0  0  0  0  0  0  0  0  0  0
    3.8730  -26.2516  -78.1547 C   0  0  0  0  0  0  0  0  0  0  0  0
    3.8710  -27.5251  -78.6265 N   0  0  0  0  0  0  0  0  0  0  0  0
    5.3350  -34.7907  -84.5949 O   0  5  0  0  0  0  0  0  0  0  0  0
    2.3388  -32.9144  -86.0934 O   0  0  0  0  0  0  0  0  0  0  0  0
    7.8586  -28.3198  -83.6109 S   0  0  0  0  0  0  0  0  0  0  0  0
    8.0498  -27.6710  -82.1281 C   0  0  0  0  0  0  0  0  0  0  0  0
    4.1794  -32.7796  -83.8549 O   0  0  0  0  0  0  0  0  0  0  0  0
    3.2834  -35.1365  -86.7664 O   0  5  0  0  0  0  0  0  0  0  0  0
    7.3698  -28.3233  -81.1170 N   0  0  0  0  0  0  0  0  0  0  0  0
    4.7965  -33.1671  -86.4459 O   0  0  0  0  0  0  0  0  0  0  0  0
    3.1123  -33.2589  -88.3956 O   0  0  0  0  0  0  0  0  0  0  0  0
    6.6943  -29.3892  -81.6581 C   0  0  1  0  0  0  0  0  0  0  0  0
    6.9099  -29.4721  -83.0427 C   0  0  2  0  0  0  0  0  0  0  0  0
    6.4601  -30.4082  -84.1372 C   0  0  0  0  0  0  0  0  0  0  0  0
    7.2501  -31.7210  -84.1068 C   0  0  0  0  0  0  0  0  0  0  0  0
    6.6740  -32.6411  -85.0257 O   0  0  0  0  0  0  0  0  0  0  0  0
  1 11  1  0  0  0  0
  3 13  1  1  0  0  0
  3 17  2  0  0  0  0
  3 20  1  0  0  0  0
  3 26  1  0  0  0  0
  4 14  1  1  0  0  0
  4 18  1  0  0  0  0
  4 21  2  0  0  0  0
  4 20  1  0  0  0  0
  5 19  1  0  0  0  0
  5  7  1  0  0  0  0
  6  7  2  0  0  0  0
  6 12  1  0  0  0  0
  7  8  1  0  0  0  0
  8  9  1  0  0  0  0
  8 10  2  0  0  0  0
 10 11  1  0  0  0  0
 11 12  2  0  0  0  0
 15 23  1  0  0  0  0
 15 16  1  0  0  0  0
 16 19  1  0  0  0  0
 19 22  1  0  0  0  0
 22  2  1  1  0  0  0
 22 23  1  0  0  0  0
 23 24  1  1  0  0  0
 24 25  1  0  0  0  0
 25 26  1  0  0  0  0
M  CHG  2  13  -1  18  -1
M  END
>  <CHROM.1>
70.66933537,108.59709361,63.06175819,54.05388285,102.37202818,171.93860223
-66.26988414,-111.42833764,5.40477970,-30.28047850,-82.88578814,1.41441519
0.25733828,0.83799833

>  <Name>
ligand

>  <RI>
0

>  <Rbt.Current_Directory>
/home/itssahil/PROJECTS/Mol_Feturizer/New_Systems/rnas/2CKY

>  <Rbt.Executable>
rbdock ($Id: //depot/dev/client3/rdock/2013.1/src/exe/rbdock.cxx#4 $)

>  <Rbt.Library>
libRbt.so (2013.1, Build901 2013/11/27)

>  <Rbt.Parameter_File>
/export/apps/rDock/src/rDock_2013.1_src/data/scripts/dock_solv.prm

>  <Rbt.Receptor>
prm/blind_docking_100.prm

>  <SCORE>
-14.5892

>  <SCORE.INTER>
-9.52882

>  <SCORE.INTER.CONST>
1

>  <SCORE.INTER.POLAR>
0

>  <SCORE.INTER.ROT>
8

>  <SCORE.INTER.SOLV>
17.166

>  <SCORE.INTER.VDW>
-21.0079

>  <SCORE.INTER.norm>
-0.366493

>  <SCORE.INTRA>
-5.06565

>  <SCORE.INTRA.DIHEDRAL>
-9.01526

>  <SCORE.INTRA.DIHEDRAL.0>
16.4846

>  <SCORE.INTRA.POLAR>
0

>  <SCORE.INTRA.POLAR.0>
0

>  <SCORE.INTRA.REPUL>
0

>  <SCORE.INTRA.REPUL.0>
0

>  <SCORE.INTRA.SOLV>
1.27527

>  <SCORE.INTRA.SOLV.lig_0>
-82.6983

>  <SCORE.INTRA.VDW>
-1.19565

>  <SCORE.INTRA.VDW.0>
-2.11466

>  <SCORE.INTRA.norm>
-0.194833

>  <SCORE.RESTR>
0.00526144

>  <SCORE.RESTR.CAVITY>
0.00526144

>  <SCORE.RESTR.norm>
0.000202363

>  <SCORE.SYSTEM>
0

>  <SCORE.SYSTEM.CONST>
0

>  <SCORE.SYSTEM.DIHEDRAL>
0

>  <SCORE.SYSTEM.SOLV>
0

>  <SCORE.SYSTEM.norm>
0

>  <SCORE.heavy>
26

>  <SCORE.norm>
-0.561123

>  <RMSD>
19.185

$$$$
ligand
 OpenBabel11021811423D
libRbt.so/2013.1/901 2013/11/27
 26 27  0  0  0  0  0  0  0  0999 V2000
   -0.1033  -27.8541  -79.4923 C   0  0  0  0  0  0  0  0  0  0  0  0
    5.6002  -25.0980  -80.6736 C   0  0  0  0  0  0  0  0  0  0  0  0
    5.9340  -29.7127  -82.9844 P   0  0  2  0  0  0  0  0  0  0  0  0
    3.6636  -30.4252  -81.5672 P   0  0  2  0  0  0  0  0  0  0  0  0
    4.9441  -25.8314  -77.6765 C   0  0  0  0  0  0  0  0  0  0  0  0
    3.5361  -27.1631  -79.2271 C   0  0  0  0  0  0  0  0  0  0  0  0
    3.5951  -26.3163  -78.1278 C   0  0  0  0  0  0  0  0  0  0  0  0
    2.4102  -25.9965  -77.4584 C   0  0  0  0  0  0  0  0  0  0  0  0
    2.3449  -25.2065  -76.3863 N   0  0  0  0  0  0  0  0  0  0  0  0
    1.2261  -26.5118  -77.9184 N   0  0  0  0  0  0  0  0  0  0  0  0
    1.1972  -27.3268  -79.0148 C   0  0  0  0  0  0  0  0  0  0  0  0
    2.3339  -27.6662  -79.6762 N   0  0  0  0  0  0  0  0  0  0  0  0
    5.9463  -29.5718  -84.4937 O   0  5  0  0  0  0  0  0  0  0  0  0
    3.7675  -31.7689  -82.2529 O   0  0  0  0  0  0  0  0  0  0  0  0
    8.1307  -27.6322  -79.0806 S   0  0  0  0  0  0  0  0  0  0  0  0
    6.9895  -27.2014  -77.9997 C   0  0  0  0  0  0  0  0  0  0  0  0
    6.4945  -31.0992  -82.6789 O   0  0  0  0  0  0  0  0  0  0  0  0
    2.2263  -29.9576  -81.4613 O   0  5  0  0  0  0  0  0  0  0  0  0
    6.0544  -26.2995  -78.4712 N   0  0  0  0  0  0  0  0  0  0  0  0
    4.4362  -29.3757  -82.4854 O   0  0  0  0  0  0  0  0  0  0  0  0
    4.2888  -30.5445  -80.1922 O   0  0  0  0  0  0  0  0  0  0  0  0
    6.3496  -26.0035  -79.7791 C   0  0  1  0  0  0  0  0  0  0  0  0
    7.4882  -26.7028  -80.2094 C   0  0  2  0  0  0  0  0  0  0  0  0
    8.2564  -26.7944  -81.5048 C   0  0  0  0  0  0  0  0  0  0  0  0
    8.0192  -28.1399  -82.1989 C   0  0  0  0  0  0  0  0  0  0  0  0
    6.6209  -28.3654  -82.3284 O   0  0  0  0  0  0  0  0  0  0  0  0
  1 11  1  0  0  0  0
  3 13  1  6  0  0  0
  3 17  2  0  0  0  0
  3 20  1  0  0  0  0
  3 26  1  0  0  0  0
  4 14  1  6  0  0  0
  4 18  1  0  0  0  0
  4 21  2  0  0  0  0
  4 20  1  0  0  0  0
  5 19  1  0  0  0  0
  5  7  1  0  0  0  0
  6  7  2  0  0  0  0
  6 12  1  0  0  0  0
  7  8  1  0  0  0  0
  8  9  1  0  0  0  0
  8 10  2  0  0  0  0
 10 11  1  0  0  0  0
 11 12  2  0  0  0  0
 15 23  1  0  0  0  0
 15 16  1  0  0  0  0
 16 19  1  0  0  0  0
 19 22  1  0  0  0  0
 22  2  1  6  0  0  0
 22 23  1  0  0  0  0
 23 24  1  6  0  0  0
 24 25  1  0  0  0  0
 25 26  1  0  0  0  0
M  CHG  2  13  -1  18  -1
M  END
>  <CHROM.1>
126.35294047,-110.80743329,0.85400471,-50.37235437,72.42475024,52.59836403
-178.35528051,-81.51956930,4.84234373,-28.14361686,-80.43902535,2.10784512
0.22508627,0.79640905

>  <Name>
ligand

>  <RI>
0

>  <Rbt.Current_Directory>
/home/itssahil/PROJECTS/Mol_Feturizer/New_Systems/rnas/2CKY

>  <Rbt.Executable>
rbdock ($Id: //depot/dev/client3/rdock/2013.1/src/exe/rbdock.cxx#4 $)

>  <Rbt.Library>
libRbt.so (2013.1, Build901 2013/11/27)

>  <Rbt.Parameter_File>
/export/apps/rDock/src/rDock_2013.1_src/data/scripts/dock_solv.prm

>  <Rbt.Receptor>
prm/blind_docking_100.prm

>  <SCORE>
-19.1444

>  <SCORE.INTER>
-13.166

>  <SCORE.INTER.CONST>
1

>  <SCORE.INTER.POLAR>
0

>  <SCORE.INTER.ROT>
8

>  <SCORE.INTER.SOLV>
13.2277

>  <SCORE.INTER.VDW>
-22.1199

>  <SCORE.INTER.norm>
-0.506386

>  <SCORE.INTRA>
-5.97838

>  <SCORE.INTRA.DIHEDRAL>
-8.25326

>  <SCORE.INTRA.DIHEDRAL.0>
16.4846

>  <SCORE.INTRA.POLAR>
0

>  <SCORE.INTRA.POLAR.0>
0

>  <SCORE.INTRA.REPUL>
0

>  <SCORE.INTRA.REPUL.0>
0

>  <SCORE.INTRA.SOLV>
0.965563

>  <SCORE.INTRA.SOLV.lig_0>
-82.6983

>  <SCORE.INTRA.VDW>
-2.33453

>  <SCORE.INTRA.VDW.0>
-2.11466

>  <SCORE.INTRA.norm>
-0.229938

>  <SCORE.RESTR>
0

>  <SCORE.RESTR.CAVITY>
0

>  <SCORE.RESTR.norm>
0

>  <SCORE.SYSTEM>
0

>  <SCORE.SYSTEM.CONST>
0

>  <SCORE.SYSTEM.DIHEDRAL>
0

>  <SCORE.SYSTEM.SOLV>
0

>  <SCORE.SYSTEM.norm>
0

>  <SCORE.heavy>
26

>  <SCORE.norm>
-0.736323

>  <RMSD>
19.187

$$$$
ligand
 OpenBabel11021811423D
libRbt.so/2013.1/901 2013/11/27
 26 27  0  0  0  0  0  0  0  0999 V2000
    0.7355  -29.5351  -74.9534 C   0  0  0  0  0  0  0  0  0  0  0  0
    3.8913  -27.9164  -82.2964 C   0  0  0  0  0  0  0  0  0  0  0  0
    5.5027  -31.8871  -86.6335 P   0  0  2  0  0  0  0  0  0  0  0  0
    5.5021  -34.4075  -85.4854 P   0  0  2  0  0  0  0  0  0  0  0  0
    1.3282  -28.5493  -80.5697 C   0  0  0  0  0  0  0  0  0  0  0  0
    0.0216  -28.5395  -78.4595 C   0  0  0  0  0  0  0  0  0  0  0  0
    1.2300  -28.8025  -79.0915 C   0  0  0  0  0  0  0  0  0  0  0  0
    2.2805  -29.3397  -78.3417 C   0  0  0  0  0  0  0  0  0  0  0  0
    3.4786  -29.6443  -78.8412 N   0  0  0  0  0  0  0  0  0  0  0  0
    2.0925  -29.5717  -77.0037 N   0  0  0  0  0  0  0  0  0  0  0  0
    0.8981  -29.2844  -76.4054 C   0  0  0  0  0  0  0  0  0  0  0  0
   -0.1446  -28.7756  -77.1116 N   0  0  0  0  0  0  0  0  0  0  0  0
    4.0375  -32.0011  -87.0049 O   0  5  0  0  0  0  0  0  0  0  0  0
    6.3944  -34.8972  -86.6037 O   0  0  0  0  0  0  0  0  0  0  0  0
    2.9121  -31.7115  -82.2609 S   0  0  0  0  0  0  0  0  0  0  0  0
    1.8799  -30.8418  -81.3475 C   0  0  0  0  0  0  0  0  0  0  0  0
    6.2919  -32.1859  -87.9055 O   0  0  0  0  0  0  0  0  0  0  0  0
    4.0353  -34.6088  -85.8073 O   0  5  0  0  0  0  0  0  0  0  0  0
    2.1525  -29.4880  -81.2927 N   0  0  0  0  0  0  0  0  0  0  0  0
    5.7461  -32.8378  -85.3518 O   0  0  0  0  0  0  0  0  0  0  0  0
    5.8774  -35.1500  -84.2191 O   0  0  0  0  0  0  0  0  0  0  0  0
    3.2621  -29.2317  -82.0599 C   0  0  1  0  0  0  0  0  0  0  0  0
    3.7536  -30.4094  -82.6445 C   0  0  2  0  0  0  0  0  0  0  0  0
    4.8983  -30.7431  -83.5691 C   0  0  0  0  0  0  0  0  0  0  0  0
    4.8252  -29.9258  -84.8633 C   0  0  0  0  0  0  0  0  0  0  0  0
    5.7264  -30.4714  -85.8189 O   0  0  0  0  0  0  0  0  0  0  0  0
  1 11  1  0  0  0  0
  3 13  1  6  0  0  0
  3 17  2  0  0  0  0
  3 20  1  0  0  0  0
  3 26  1  0  0  0  0
  4 14  1  6  0  0  0
  4 18  1  0  0  0  0
  4 21  2  0  0  0  0
  4 20  1  0  0  0  0
  5 19  1  0  0  0  0
  5  7  1  0  0  0  0
  6  7  2  0  0  0  0
  6 12  1  0  0  0  0
  7  8  1  0  0  0  0
  8  9  1  0  0  0  0
  8 10  2  0  0  0  0
 10 11  1  0  0  0  0
 11 12  2  0  0  0  0
 15 23  1  0  0  0  0
 15 16  1  0  0  0  0
 16 19  1  0  0  0  0
 19 22  1  0  0  0  0
 22  2  1  6  0  0  0
 22 23  1  0  0  0  0
 23 24  1  6  0  0  0
 24 25  1  0  0  0  0
 25 26  1  0  0  0  0
M  CHG  2  13  -1  18  -1
M  END
>  <CHROM.1>
62.24675522,61.11171624,-144.29251914,57.34859676,123.57424822,-167.08664106
72.99522651,39.17898082,3.66937904,-31.14051977,-82.66766633,3.09371466,1.13835850
-0.39356544

>  <Name>
ligand

>  <RI>
0

>  <Rbt.Current_Directory>
/home/itssahil/PROJECTS/Mol_Feturizer/New_Systems/rnas/2CKY

>  <Rbt.Executable>
rbdock ($Id: //depot/dev/client3/rdock/2013.1/src/exe/rbdock.cxx#4 $)

>  <Rbt.Library>
libRbt.so (2013.1, Build901 2013/11/27)

>  <Rbt.Parameter_File>
/export/apps/rDock/src/rDock_2013.1_src/data/scripts/dock_solv.prm

>  <Rbt.Receptor>
prm/blind_docking_100.prm

>  <SCORE>
-12.6099

>  <SCORE.INTER>
-8.1271

>  <SCORE.INTER.CONST>
1

>  <SCORE.INTER.POLAR>
0

>  <SCORE.INTER.ROT>
8

>  <SCORE.INTER.SOLV>
18.7858

>  <SCORE.INTER.VDW>
-20.6133

>  <SCORE.INTER.norm>
-0.312581

>  <SCORE.INTRA>
-4.4828

>  <SCORE.INTRA.DIHEDRAL>
-9.90015

>  <SCORE.INTRA.DIHEDRAL.0>
16.4846

>  <SCORE.INTRA.POLAR>
0

>  <SCORE.INTRA.POLAR.0>
0

>  <SCORE.INTRA.REPUL>
0

>  <SCORE.INTRA.REPUL.0>
0

>  <SCORE.INTRA.SOLV>
4.5456

>  <SCORE.INTRA.SOLV.lig_0>
-82.6983

>  <SCORE.INTRA.VDW>
-1.80552

>  <SCORE.INTRA.VDW.0>
-2.11466

>  <SCORE.INTRA.norm>
-0.172415

>  <SCORE.RESTR>
0

>  <SCORE.RESTR.CAVITY>
0

>  <SCORE.RESTR.norm>
0

>  <SCORE.SYSTEM>
0

>  <SCORE.SYSTEM.CONST>
0

>  <SCORE.SYSTEM.DIHEDRAL>
0

>  <SCORE.SYSTEM.SOLV>
0

>  <SCORE.SYSTEM.norm>
0

>  <SCORE.heavy>
26

>  <SCORE.norm>
-0.484996

>  <RMSD>
19.382

$$$$
ligand
 OpenBabel11021811423D
libRbt.so/2013.1/901 2013/11/27
 26 27  0  0  0  0  0  0  0  0999 V2000
   10.1148  -24.5257  -79.0488 C   0  0  0  0  0  0  0  0  0  0  0  0
    3.9687  -28.5538  -83.7639 C   0  0  0  0  0  0  0  0  0  0  0  0
    0.6502  -29.5620  -80.8297 P   0  0  2  0  0  0  0  0  0  0  0  0
    2.0080  -29.1062  -78.4592 P   0  0  2  0  0  0  0  0  0  0  0  0
    6.5784  -27.0945  -82.7583 C   0  0  0  0  0  0  0  0  0  0  0  0
    8.6987  -25.9433  -82.1759 C   0  0  0  0  0  0  0  0  0  0  0  0
    7.4805  -26.4508  -81.7431 C   0  0  0  0  0  0  0  0  0  0  0  0
    7.1229  -26.2938  -80.4008 C   0  0  0  0  0  0  0  0  0  0  0  0
    5.9767  -26.7269  -79.8750 N   0  0  0  0  0  0  0  0  0  0  0  0
    7.9926  -25.6623  -79.5499 N   0  0  0  0  0  0  0  0  0  0  0  0
    9.1933  -25.1907  -80.0007 C   0  0  0  0  0  0  0  0  0  0  0  0
    9.5608  -25.3160  -81.3022 N   0  0  0  0  0  0  0  0  0  0  0  0
   -0.1588  -28.7089  -81.7866 O   0  5  0  0  0  0  0  0  0  0  0  0
    0.8830  -29.8641  -77.7908 O   0  0  0  0  0  0  0  0  0  0  0  0
    6.0927  -30.6789  -81.2468 S   0  0  0  0  0  0  0  0  0  0  0  0
    6.8036  -29.2397  -81.5285 C   0  0  0  0  0  0  0  0  0  0  0  0
   -0.3289  -30.5537  -80.2070 O   0  0  0  0  0  0  0  0  0  0  0  0
    2.4405  -27.9058  -77.6421 O   0  5  0  0  0  0  0  0  0  0  0  0
    6.1281  -28.4222  -82.4148 N   0  0  0  0  0  0  0  0  0  0  0  0
    1.4382  -28.5565  -79.8428 O   0  0  0  0  0  0  0  0  0  0  0  0
    3.1679  -30.0599  -78.6618 O   0  0  0  0  0  0  0  0  0  0  0  0
    4.9905  -29.0693  -82.8302 C   0  0  1  0  0  0  0  0  0  0  0  0
    4.8815  -30.3330  -82.2288 C   0  0  2  0  0  0  0  0  0  0  0  0
    3.8748  -31.4555  -82.2822 C   0  0  0  0  0  0  0  0  0  0  0  0
    2.7521  -31.2459  -81.2604 C   0  0  0  0  0  0  0  0  0  0  0  0
    1.9984  -30.0932  -81.6156 O   0  0  0  0  0  0  0  0  0  0  0  0
  1 11  1  0  0  0  0
  3 13  1  6  0  0  0
  3 17  2  0  0  0  0
  3 20  1  0  0  0  0
  3 26  1  0  0  0  0
  4 14  1  1  0  0  0
  4 18  1  0  0  0  0
  4 21  2  0  0  0  0
  4 20  1  0  0  0  0
  5 19  1  0  0  0  0
  5  7  1  0  0  0  0
  6  7  2  0  0  0  0
  6 12  1  0  0  0  0
  7  8  1  0  0  0  0
  8  9  1  0  0  0  0
  8 10  2  0  0  0  0
 10 11  1  0  0  0  0
 11 12  2  0  0  0  0
 15 23  1  0  0  0  0
 15 16  1  0  0  0  0
 16 19  1  0  0  0  0
 19 22  1  0  0  0  0
 22  2  1  1  0  0  0
 22 23  1  0  0  0  0
 23 24  1  1  0  0  0
 24 25  1  0  0  0  0
 25 26  1  0  0  0  0
M  CHG  2  13  -1  18  -1
M  END
>  <CHROM.1>
161.09736487,-22.73852701,127.35672930,-48.95766556,92.77737854,65.71191688
176.39213667,-157.03639815,4.37929261,-28.56839810,-80.67993102,0.17902385
0.44746103,0.98243919

>  <Name>
ligand

>  <RI>
0

>  <Rbt.Current_Directory>
/home/itssahil/PROJECTS/Mol_Feturizer/New_Systems/rnas/2CKY

>  <Rbt.Executable>
rbdock ($Id: //depot/dev/client3/rdock/2013.1/src/exe/rbdock.cxx#4 $)

>  <Rbt.Library>
libRbt.so (2013.1, Build901 2013/11/27)

>  <Rbt.Parameter_File>
/export/apps/rDock/src/rDock_2013.1_src/data/scripts/dock_solv.prm

>  <Rbt.Receptor>
prm/blind_docking_100.prm

>  <SCORE>
-17.6773

>  <SCORE.INTER>
-11.781

>  <SCORE.INTER.CONST>
1

>  <SCORE.INTER.POLAR>
0

>  <SCORE.INTER.ROT>
8

>  <SCORE.INTER.SOLV>
14.394

>  <SCORE.INTER.VDW>
-21.5854

>  <SCORE.INTER.norm>
-0.453117

>  <SCORE.INTRA>
-5.89625

>  <SCORE.INTRA.DIHEDRAL>
-9.55114

>  <SCORE.INTRA.DIHEDRAL.0>
16.4846

>  <SCORE.INTRA.POLAR>
0

>  <SCORE.INTRA.POLAR.0>
0

>  <SCORE.INTRA.REPUL>
0

>  <SCORE.INTRA.REPUL.0>
0

>  <SCORE.INTRA.SOLV>
2.43894

>  <SCORE.INTRA.SOLV.lig_0>
-82.6983

>  <SCORE.INTRA.VDW>
-2.34015

>  <SCORE.INTRA.VDW.0>
-2.11466

>  <SCORE.INTRA.norm>
-0.226779

>  <SCORE.RESTR>
0

>  <SCORE.RESTR.CAVITY>
0

>  <SCORE.RESTR.norm>
0

>  <SCORE.SYSTEM>
0

>  <SCORE.SYSTEM.CONST>
0

>  <SCORE.SYSTEM.DIHEDRAL>
0

>  <SCORE.SYSTEM.SOLV>
0

>  <SCORE.SYSTEM.norm>
0

>  <SCORE.heavy>
26

>  <SCORE.norm>
-0.679896

>  <RMSD>
19.541

$$$$
ligand
 OpenBabel11021811423D
libRbt.so/2013.1/901 2013/11/27
 26 27  0  0  0  0  0  0  0  0999 V2000
    2.6417  -26.1472  -85.5314 C   0  0  0  0  0  0  0  0  0  0  0  0
   -0.0438  -29.3565  -80.1527 C   0  0  0  0  0  0  0  0  0  0  0  0
    3.8031  -25.9948  -77.1829 P   0  0  2  0  0  0  0  0  0  0  0  0
    5.3391  -26.8383  -79.3275 P   0  0  2  0  0  0  0  0  0  0  0  0
    1.8410  -30.7766  -82.2461 C   0  0  0  0  0  0  0  0  0  0  0  0
    3.1791  -28.8383  -83.0289 C   0  0  0  0  0  0  0  0  0  0  0  0
    1.9936  -29.5571  -83.1112 C   0  0  0  0  0  0  0  0  0  0  0  0
    1.0205  -29.1505  -84.0287 C   0  0  0  0  0  0  0  0  0  0  0  0
   -0.1478  -29.7683  -84.2054 N   0  0  0  0  0  0  0  0  0  0  0  0
    1.2575  -28.0450  -84.8040 N   0  0  0  0  0  0  0  0  0  0  0  0
    2.4259  -27.3462  -84.6867 C   0  0  0  0  0  0  0  0  0  0  0  0
    3.3950  -27.7264  -83.8144 N   0  0  0  0  0  0  0  0  0  0  0  0
    2.6828  -25.0034  -76.9377 O   0  5  0  0  0  0  0  0  0  0  0  0
    6.3294  -27.1044  -78.2161 O   0  0  0  0  0  0  0  0  0  0  0  0
    3.3702  -30.5522  -78.6434 S   0  0  0  0  0  0  0  0  0  0  0  0
    3.2734  -30.9363  -80.2243 C   0  0  0  0  0  0  0  0  0  0  0  0
    4.8648  -25.7126  -76.1232 O   0  0  0  0  0  0  0  0  0  0  0  0
    5.9859  -26.1267  -80.4984 O   0  5  0  0  0  0  0  0  0  0  0  0
    2.0955  -30.5604  -80.8419 N   0  0  0  0  0  0  0  0  0  0  0  0
    4.2288  -25.8605  -78.7343 O   0  0  0  0  0  0  0  0  0  0  0  0
    4.7516  -28.1640  -79.7670 O   0  0  0  0  0  0  0  0  0  0  0  0
    1.2956  -29.9335  -79.9185 C   0  0  1  0  0  0  0  0  0  0  0  0
    1.9232  -29.8766  -78.6642 C   0  0  2  0  0  0  0  0  0  0  0  0
    1.5560  -29.3138  -77.3132 C   0  0  0  0  0  0  0  0  0  0  0  0
    1.7560  -27.7951  -77.2695 C   0  0  0  0  0  0  0  0  0  0  0  0
    3.1457  -27.4990  -77.3341 O   0  0  0  0  0  0  0  0  0  0  0  0
  1 11  1  0  0  0  0
  3 13  1  1  0  0  0
  3 17  2  0  0  0  0
  3 20  1  0  0  0  0
  3 26  1  0  0  0  0
  4 14  1  1  0  0  0
  4 18  1  0  0  0  0
  4 21  2  0  0  0  0
  4 20  1  0  0  0  0
  5 19  1  0  0  0  0
  5  7  1  0  0  0  0
  6  7  2  0  0  0  0
  6 12  1  0  0  0  0
  7  8  1  0  0  0  0
  8  9  1  0  0  0  0
  8 10  2  0  0  0  0
 10 11  1  0  0  0  0
 11 12  2  0  0  0  0
 15 23  1  0  0  0  0
 15 16  1  0  0  0  0
 16 19  1  0  0  0  0
 19 22  1  0  0  0  0
 22  2  1  6  0  0  0
 22 23  1  0  0  0  0
 23 24  1  6  0  0  0
 24 25  1  0  0  0  0
 25 26  1  0  0  0  0
M  CHG  2  13  -1  18  -1
M  END
>  <CHROM.1>
-176.59865451,-102.33175757,52.71608784,-34.07669891,101.13497227,-68.52568996
-174.36534824,1.15388814,3.08018712,-28.08488689,-80.11162726,-2.18989333
0.91667625,1.74246635

>  <Name>
ligand

>  <RI>
0

>  <Rbt.Current_Directory>
/home/itssahil/PROJECTS/Mol_Feturizer/New_Systems/rnas/2CKY

>  <Rbt.Executable>
rbdock ($Id: //depot/dev/client3/rdock/2013.1/src/exe/rbdock.cxx#4 $)

>  <Rbt.Library>
libRbt.so (2013.1, Build901 2013/11/27)

>  <Rbt.Parameter_File>
/export/apps/rDock/src/rDock_2013.1_src/data/scripts/dock_solv.prm

>  <Rbt.Receptor>
prm/blind_docking_100.prm

>  <SCORE>
-23.0406

>  <SCORE.INTER>
-16.4712

>  <SCORE.INTER.CONST>
1

>  <SCORE.INTER.POLAR>
0

>  <SCORE.INTER.ROT>
8

>  <SCORE.INTER.SOLV>
10.1729

>  <SCORE.INTER.VDW>
-23.3051

>  <SCORE.INTER.norm>
-0.633508

>  <SCORE.INTRA>
-6.56944

>  <SCORE.INTRA.DIHEDRAL>
-8.23499

>  <SCORE.INTRA.DIHEDRAL.0>
16.4846

>  <SCORE.INTRA.POLAR>
0

>  <SCORE.INTRA.POLAR.0>
0

>  <SCORE.INTRA.REPUL>
0

>  <SCORE.INTRA.REPUL.0>
0

>  <SCORE.INTRA.SOLV>
1.09932

>  <SCORE.INTRA.SOLV.lig_0>
-82.6983

>  <SCORE.INTRA.VDW>
-3.0016

>  <SCORE.INTRA.VDW.0>
-2.11466

>  <SCORE.INTRA.norm>
-0.252671

>  <SCORE.RESTR>
0

>  <SCORE.RESTR.CAVITY>
0

>  <SCORE.RESTR.norm>
0

>  <SCORE.SYSTEM>
0

>  <SCORE.SYSTEM.CONST>
0

>  <SCORE.SYSTEM.DIHEDRAL>
0

>  <SCORE.SYSTEM.SOLV>
0

>  <SCORE.SYSTEM.norm>
0

>  <SCORE.heavy>
26

>  <SCORE.norm>
-0.886179

>  <RMSD>
19.662

$$$$
ligand
 OpenBabel11021811423D
libRbt.so/2013.1/901 2013/11/27
 26 27  0  0  0  0  0  0  0  0999 V2000
    2.5143  -26.1881  -85.6753 C   0  0  0  0  0  0  0  0  0  0  0  0
    0.1417  -28.9340  -80.0799 C   0  0  0  0  0  0  0  0  0  0  0  0
    4.5083  -26.0874  -77.7978 P   0  0  2  0  0  0  0  0  0  0  0  0
    6.5188  -27.6032  -78.9515 P   0  0  2  0  0  0  0  0  0  0  0  0
    1.6231  -30.6910  -82.2409 C   0  0  0  0  0  0  0  0  0  0  0  0
    0.8361  -28.8842  -83.7497 C   0  0  0  0  0  0  0  0  0  0  0  0
    1.9101  -29.5301  -83.1512 C   0  0  0  0  0  0  0  0  0  0  0  0
    3.2008  -29.0423  -83.3757 C   0  0  0  0  0  0  0  0  0  0  0  0
    4.3044  -29.5706  -82.8459 N   0  0  0  0  0  0  0  0  0  0  0  0
    3.3685  -27.9553  -84.1941 N   0  0  0  0  0  0  0  0  0  0  0  0
    2.2938  -27.3526  -84.7849 C   0  0  0  0  0  0  0  0  0  0  0  0
    1.0274  -27.7956  -84.5733 N   0  0  0  0  0  0  0  0  0  0  0  0
    3.6329  -24.9139  -78.1910 O   0  5  0  0  0  0  0  0  0  0  0  0
    7.1305  -27.4989  -77.5725 O   0  0  0  0  0  0  0  0  0  0  0  0
    3.4066  -30.6471  -78.7501 S   0  0  0  0  0  0  0  0  0  0  0  0
    3.1422  -31.0432  -80.3087 C   0  0  0  0  0  0  0  0  0  0  0  0
    5.1963  -25.6910  -76.4942 O   0  0  0  0  0  0  0  0  0  0  0  0
    7.5470  -27.3774  -80.0412 O   0  5  0  0  0  0  0  0  0  0  0  0
    2.0033  -30.4902  -80.8630 N   0  0  0  0  0  0  0  0  0  0  0  0
    5.4402  -26.4353  -79.0692 O   0  0  0  0  0  0  0  0  0  0  0  0
    5.8882  -28.9741  -79.0884 O   0  0  0  0  0  0  0  0  0  0  0  0
    1.3809  -29.7200  -79.9118 C   0  0  1  0  0  0  0  0  0  0  0  0
    2.0920  -29.7414  -78.7017 C   0  0  2  0  0  0  0  0  0  0  0  0
    1.9137  -29.0971  -77.3491 C   0  0  0  0  0  0  0  0  0  0  0  0
    2.2832  -27.6104  -77.3873 C   0  0  0  0  0  0  0  0  0  0  0  0
    3.6068  -27.4647  -77.8871 O   0  0  0  0  0  0  0  0  0  0  0  0
  1 11  1  0  0  0  0
  3 13  1  6  0  0  0
  3 17  2  0  0  0  0
  3 20  1  0  0  0  0
  3 26  1  0  0  0  0
  4 14  1  1  0  0  0
  4 18  1  0  0  0  0
  4 21  2  0  0  0  0
  4 20  1  0  0  0  0
  5 19  1  0  0  0  0
  5  7  1  0  0  0  0
  6  7  2  0  0  0  0
  6 12  1  0  0  0  0
  7  8  1  0  0  0  0
  8  9  1  0  0  0  0
  8 10  2  0  0  0  0
 10 11  1  0  0  0  0
 11 12  2  0  0  0  0
 15 23  1  0  0  0  0
 15 16  1  0  0  0  0
 16 19  1  0  0  0  0
 19 22  1  0  0  0  0
 22  2  1  6  0  0  0
 22 23  1  0  0  0  0
 23 24  1  6  0  0  0
 24 25  1  0  0  0  0
 25 26  1  0  0  0  0
M  CHG  2  13  -1  18  -1
M  END
>  <CHROM.1>
177.85146388,-102.57524766,-116.09280909,-39.65736348,104.54285772,-55.13929695
-166.41332778,-44.91511382,3.62395716,-28.21695568,-80.14245373,-2.27515557
0.71528396,1.79060849

>  <Name>
ligand

>  <RI>
0

>  <Rbt.Current_Directory>
/home/itssahil/PROJECTS/Mol_Feturizer/New_Systems/rnas/2CKY

>  <Rbt.Executable>
rbdock ($Id: //depot/dev/client3/rdock/2013.1/src/exe/rbdock.cxx#4 $)

>  <Rbt.Library>
libRbt.so (2013.1, Build901 2013/11/27)

>  <Rbt.Parameter_File>
/export/apps/rDock/src/rDock_2013.1_src/data/scripts/dock_solv.prm

>  <Rbt.Receptor>
prm/blind_docking_100.prm

>  <SCORE>
-24.7773

>  <SCORE.INTER>
-17.7034

>  <SCORE.INTER.CONST>
1

>  <SCORE.INTER.POLAR>
0

>  <SCORE.INTER.ROT>
8

>  <SCORE.INTER.SOLV>
13.9291

>  <SCORE.INTER.VDW>
-25.3786

>  <SCORE.INTER.norm>
-0.680898

>  <SCORE.INTRA>
-7.07397

>  <SCORE.INTRA.DIHEDRAL>
-9.73452

>  <SCORE.INTRA.DIHEDRAL.0>
16.4846

>  <SCORE.INTRA.POLAR>
0

>  <SCORE.INTRA.POLAR.0>
0

>  <SCORE.INTRA.REPUL>
0

>  <SCORE.INTRA.REPUL.0>
0

>  <SCORE.INTRA.SOLV>
1.4476

>  <SCORE.INTRA.SOLV.lig_0>
-82.6983

>  <SCORE.INTRA.VDW>
-2.93051

>  <SCORE.INTRA.VDW.0>
-2.11466

>  <SCORE.INTRA.norm>
-0.272076

>  <SCORE.RESTR>
0

>  <SCORE.RESTR.CAVITY>
0

>  <SCORE.RESTR.norm>
0

>  <SCORE.SYSTEM>
0

>  <SCORE.SYSTEM.CONST>
0

>  <SCORE.SYSTEM.DIHEDRAL>
0

>  <SCORE.SYSTEM.SOLV>
0

>  <SCORE.SYSTEM.norm>
0

>  <SCORE.heavy>
26

>  <SCORE.norm>
-0.952974

>  <RMSD>
19.706

$$$$
ligand
 OpenBabel11021811423D
libRbt.so/2013.1/901 2013/11/27
 26 27  0  0  0  0  0  0  0  0999 V2000
    9.7867  -32.9905  -88.6258 C   0  0  0  0  0  0  0  0  0  0  0  0
    3.7576  -31.7623  -82.6371 C   0  0  0  0  0  0  0  0  0  0  0  0
    6.2276  -26.6208  -78.4528 P   0  0  2  0  0  0  0  0  0  0  0  0
    8.3135  -25.2948  -79.7023 P   0  0  2  0  0  0  0  0  0  0  0  0
    5.2979  -31.5161  -85.3790 C   0  0  0  0  0  0  0  0  0  0  0  0
    7.6031  -32.3842  -85.6834 C   0  0  0  0  0  0  0  0  0  0  0  0
    6.4562  -31.8658  -86.2706 C   0  0  0  0  0  0  0  0  0  0  0  0
    6.4073  -31.7429  -87.6622 C   0  0  0  0  0  0  0  0  0  0  0  0
    5.3578  -31.2722  -88.3367 N   0  0  0  0  0  0  0  0  0  0  0  0
    7.4984  -32.1188  -88.4022 N   0  0  0  0  0  0  0  0  0  0  0  0
    8.6206  -32.6074  -87.7946 C   0  0  0  0  0  0  0  0  0  0  0  0
    8.6911  -32.7514  -86.4460 N   0  0  0  0  0  0  0  0  0  0  0  0
    5.3849  -25.6060  -79.1999 O   0  5  0  0  0  0  0  0  0  0  0  0
    9.3785  -25.6769  -80.7055 O   0  0  0  0  0  0  0  0  0  0  0  0
    6.9660  -29.5188  -82.4471 S   0  0  0  0  0  0  0  0  0  0  0  0
    6.7684  -30.1150  -83.9509 C   0  0  0  0  0  0  0  0  0  0  0  0
    6.1616  -26.2305  -76.9786 O   0  0  0  0  0  0  0  0  0  0  0  0
    8.8995  -24.5672  -78.5096 O   0  5  0  0  0  0  0  0  0  0  0  0
    5.6629  -30.9287  -84.1121 N   0  0  0  0  0  0  0  0  0  0  0  0
    7.6772  -26.6530  -79.1623 O   0  0  0  0  0  0  0  0  0  0  0  0
    7.2885  -24.4282  -80.4054 O   0  0  0  0  0  0  0  0  0  0  0  0
    5.0000  -31.0123  -82.9125 C   0  0  1  0  0  0  0  0  0  0  0  0
    5.6486  -30.2550  -81.9245 C   0  0  2  0  0  0  0  0  0  0  0  0
    5.3902  -29.9587  -80.4678 C   0  0  0  0  0  0  0  0  0  0  0  0
    5.2510  -28.4525  -80.2220 C   0  0  0  0  0  0  0  0  0  0  0  0
    5.7835  -28.1308  -78.9430 O   0  0  0  0  0  0  0  0  0  0  0  0
  1 11  1  0  0  0  0
  3 13  1  6  0  0  0
  3 17  2  0  0  0  0
  3 20  1  0  0  0  0
  3 26  1  0  0  0  0
  4 14  1  6  0  0  0
  4 18  1  0  0  0  0
  4 21  2  0  0  0  0
  4 20  1  0  0  0  0
  5 19  1  0  0  0  0
  5  7  1  0  0  0  0
  6  7  2  0  0  0  0
  6 12  1  0  0  0  0
  7  8  1  0  0  0  0
  8  9  1  0  0  0  0
  8 10  2  0  0  0  0
 10 11  1  0  0  0  0
 11 12  2  0  0  0  0
 15 23  1  0  0  0  0
 15 16  1  0  0  0  0
 16 19  1  0  0  0  0
 19 22  1  0  0  0  0
 22  2  1  6  0  0  0
 22 23  1  0  0  0  0
 23 24  1  6  0  0  0
 24 25  1  0  0  0  0
 25 26  1  0  0  0  0
M  CHG  2  13  -1  18  -1
M  END
>  <CHROM.1>
37.49261582,32.89082446,38.40352997,-160.61128377,58.03497249,-145.91427470
161.66052560,28.41903555,6.81343921,-28.95814586,-82.37977729,-1.56359650
0.57549283,0.90806633

>  <Name>
ligand

>  <RI>
0

>  <Rbt.Current_Directory>
/home/itssahil/PROJECTS/Mol_Feturizer/New_Systems/rnas/2CKY

>  <Rbt.Executable>
rbdock ($Id: //depot/dev/client3/rdock/2013.1/src/exe/rbdock.cxx#4 $)

>  <Rbt.Library>
libRbt.so (2013.1, Build901 2013/11/27)

>  <Rbt.Parameter_File>
/export/apps/rDock/src/rDock_2013.1_src/data/scripts/dock_solv.prm

>  <Rbt.Receptor>
prm/blind_docking_100.prm

>  <SCORE>
-10.5831

>  <SCORE.INTER>
-10.1072

>  <SCORE.INTER.CONST>
1

>  <SCORE.INTER.POLAR>
0

>  <SCORE.INTER.ROT>
8

>  <SCORE.INTER.SOLV>
10.4156

>  <SCORE.INTER.VDW>
-19.1433

>  <SCORE.INTER.norm>
-0.388738

>  <SCORE.INTRA>
-0.475952

>  <SCORE.INTRA.DIHEDRAL>
-4.14158

>  <SCORE.INTRA.DIHEDRAL.0>
16.4846

>  <SCORE.INTRA.POLAR>
0

>  <SCORE.INTRA.POLAR.0>
0

>  <SCORE.INTRA.REPUL>
0

>  <SCORE.INTRA.REPUL.0>
0

>  <SCORE.INTRA.SOLV>
2.12969

>  <SCORE.INTRA.SOLV.lig_0>
-82.6983

>  <SCORE.INTRA.VDW>
0.529993

>  <SCORE.INTRA.VDW.0>
-2.11466

>  <SCORE.INTRA.norm>
-0.0183058

>  <SCORE.RESTR>
0

>  <SCORE.RESTR.CAVITY>
0

>  <SCORE.RESTR.norm>
0

>  <SCORE.SYSTEM>
0

>  <SCORE.SYSTEM.CONST>
0

>  <SCORE.SYSTEM.DIHEDRAL>
0

>  <SCORE.SYSTEM.SOLV>
0

>  <SCORE.SYSTEM.norm>
0

>  <SCORE.heavy>
26

>  <SCORE.norm>
-0.407044

>  <RMSD>
19.893

$$$$
ligand
 OpenBabel11021811423D
libRbt.so/2013.1/901 2013/11/27
 26 27  0  0  0  0  0  0  0  0999 V2000
   -3.8476  -29.8343  -78.0739 C   0  0  0  0  0  0  0  0  0  0  0  0
    4.1575  -27.0664  -79.8873 C   0  0  0  0  0  0  0  0  0  0  0  0
    4.1461  -31.4089  -83.5239 P   0  0  2  0  0  0  0  0  0  0  0  0
    5.0990  -33.6366  -84.8654 P   0  0  2  0  0  0  0  0  0  0  0  0
    1.4057  -27.5666  -78.4282 C   0  0  0  0  0  0  0  0  0  0  0  0
   -0.6835  -28.4479  -79.4376 C   0  0  0  0  0  0  0  0  0  0  0  0
    0.0231  -28.1376  -78.2829 C   0  0  0  0  0  0  0  0  0  0  0  0
   -0.5558  -28.4185  -77.0418 C   0  0  0  0  0  0  0  0  0  0  0  0
    0.0312  -28.1774  -75.8692 N   0  0  0  0  0  0  0  0  0  0  0  0
   -1.8092  -28.9725  -77.0023 N   0  0  0  0  0  0  0  0  0  0  0  0
   -2.4882  -29.2486  -78.1554 C   0  0  0  0  0  0  0  0  0  0  0  0
   -1.9449  -29.0000  -79.3752 N   0  0  0  0  0  0  0  0  0  0  0  0
    2.6697  -31.7511  -83.5575 O   0  5  0  0  0  0  0  0  0  0  0  0
    3.6961  -33.9341  -85.3449 O   0  0  0  0  0  0  0  0  0  0  0  0
    3.5758  -30.8032  -78.8571 S   0  0  0  0  0  0  0  0  0  0  0  0
    2.3153  -29.8768  -78.3998 C   0  0  0  0  0  0  0  0  0  0  0  0
    4.3897  -30.4474  -84.6842 O   0  0  0  0  0  0  0  0  0  0  0  0
    5.8612  -34.9040  -84.5358 O   0  5  0  0  0  0  0  0  0  0  0  0
    2.4358  -28.5364  -78.7144 N   0  0  0  0  0  0  0  0  0  0  0  0
    4.9596  -32.8032  -83.5137 O   0  0  0  0  0  0  0  0  0  0  0  0
    5.8130  -32.8502  -85.9460 O   0  0  0  0  0  0  0  0  0  0  0  0
    3.6324  -28.3420  -79.3594 C   0  0  1  0  0  0  0  0  0  0  0  0
    4.3362  -29.5495  -79.4902 C   0  0  2  0  0  0  0  0  0  0  0  0
    5.6547  -29.9536  -80.1025 C   0  0  0  0  0  0  0  0  0  0  0  0
    5.5553  -30.0441  -81.6290 C   0  0  0  0  0  0  0  0  0  0  0  0
    4.5491  -30.9851  -81.9826 O   0  0  0  0  0  0  0  0  0  0  0  0
  1 11  1  0  0  0  0
  3 13  1  6  0  0  0
  3 17  2  0  0  0  0
  3 20  1  0  0  0  0
  3 26  1  0  0  0  0
  4 14  1  6  0  0  0
  4 18  1  0  0  0  0
  4 21  2  0  0  0  0
  4 20  1  0  0  0  0
  5 19  1  0  0  0  0
  5  7  1  0  0  0  0
  6  7  2  0  0  0  0
  6 12  1  0  0  0  0
  7  8  1  0  0  0  0
  8  9  1  0  0  0  0
  8 10  2  0  0  0  0
 10 11  1  0  0  0  0
 11 12  2  0  0  0  0
 15 23  1  0  0  0  0
 15 16  1  0  0  0  0
 16 19  1  0  0  0  0
 19 22  1  0  0  0  0
 22  2  1  6  0  0  0
 22 23  1  0  0  0  0
 23 24  1  6  0  0  0
 24 25  1  0  0  0  0
 25 26  1  0  0  0  0
M  CHG  2  13  -1  18  -1
M  END
>  <CHROM.1>
76.33226621,-23.22466711,-79.14928448,-57.98870580,102.28326960,-58.35270336
-178.47342033,-148.52630660,2.76054011,-30.51116541,-81.01160563,2.19355099
0.14470828,0.90503218

>  <Name>
ligand

>  <RI>
0

>  <Rbt.Current_Directory>
/home/itssahil/PROJECTS/Mol_Feturizer/New_Systems/rnas/2CKY

>  <Rbt.Executable>
rbdock ($Id: //depot/dev/client3/rdock/2013.1/src/exe/rbdock.cxx#4 $)

>  <Rbt.Library>
libRbt.so (2013.1, Build901 2013/11/27)

>  <Rbt.Parameter_File>
/export/apps/rDock/src/rDock_2013.1_src/data/scripts/dock_solv.prm

>  <Rbt.Receptor>
prm/blind_docking_100.prm

>  <SCORE>
-21.9992

>  <SCORE.INTER>
-15.3103

>  <SCORE.INTER.CONST>
1

>  <SCORE.INTER.POLAR>
0

>  <SCORE.INTER.ROT>
8

>  <SCORE.INTER.SOLV>
15.4948

>  <SCORE.INTER.VDW>
-24.3052

>  <SCORE.INTER.norm>
-0.588858

>  <SCORE.INTRA>
-6.68893

>  <SCORE.INTRA.DIHEDRAL>
-9.96952

>  <SCORE.INTRA.DIHEDRAL.0>
16.4846

>  <SCORE.INTRA.POLAR>
0

>  <SCORE.INTRA.POLAR.0>
0

>  <SCORE.INTRA.REPUL>
0

>  <SCORE.INTRA.REPUL.0>
0

>  <SCORE.INTRA.SOLV>
0.0611081

>  <SCORE.INTRA.SOLV.lig_0>
-82.6983

>  <SCORE.INTRA.VDW>
-1.73472

>  <SCORE.INTRA.VDW.0>
-2.11466

>  <SCORE.INTRA.norm>
-0.257266

>  <SCORE.RESTR>
0

>  <SCORE.RESTR.CAVITY>
0

>  <SCORE.RESTR.norm>
0

>  <SCORE.SYSTEM>
0

>  <SCORE.SYSTEM.CONST>
0

>  <SCORE.SYSTEM.DIHEDRAL>
0

>  <SCORE.SYSTEM.SOLV>
0

>  <SCORE.SYSTEM.norm>
0

>  <SCORE.heavy>
26

>  <SCORE.norm>
-0.846125

>  <RMSD>
20.015

$$$$
ligand
 OpenBabel11021811423D
libRbt.so/2013.1/901 2013/11/27
 26 27  0  0  0  0  0  0  0  0999 V2000
    2.2832  -35.2009  -86.4826 C   0  0  0  0  0  0  0  0  0  0  0  0
    2.6322  -30.9639  -81.6356 C   0  0  0  0  0  0  0  0  0  0  0  0
    1.5799  -28.3533  -78.4723 P   0  0  2  0  0  0  0  0  0  0  0  0
   -0.7556  -28.9574  -79.8330 P   0  0  2  0  0  0  0  0  0  0  0  0
    4.0720  -30.1955  -84.3352 C   0  0  0  0  0  0  0  0  0  0  0  0
    2.3340  -31.6794  -85.3036 C   0  0  0  0  0  0  0  0  0  0  0  0
    3.6450  -31.5341  -84.8686 C   0  0  0  0  0  0  0  0  0  0  0  0
    4.5215  -32.6157  -84.9952 C   0  0  0  0  0  0  0  0  0  0  0  0
    5.8023  -32.5898  -84.6253 N   0  0  0  0  0  0  0  0  0  0  0  0
    4.0560  -33.7910  -85.5256 N   0  0  0  0  0  0  0  0  0  0  0  0
    2.7552  -33.9102  -85.9269 C   0  0  0  0  0  0  0  0  0  0  0  0
    1.8851  -32.8719  -85.8295 N   0  0  0  0  0  0  0  0  0  0  0  0
    1.3852  -28.6141  -76.9917 O   0  5  0  0  0  0  0  0  0  0  0  0
   -0.4892  -27.9225  -80.9028 O   0  0  0  0  0  0  0  0  0  0  0  0
    6.3840  -29.9242  -81.1809 S   0  0  0  0  0  0  0  0  0  0  0  0
    5.9562  -29.8647  -82.7524 C   0  0  0  0  0  0  0  0  0  0  0  0
    1.3018  -26.8678  -78.6861 O   0  0  0  0  0  0  0  0  0  0  0  0
   -1.5349  -28.3768  -78.6706 O   0  5  0  0  0  0  0  0  0  0  0  0
    4.6474  -30.2250  -83.0118 N   0  0  0  0  0  0  0  0  0  0  0  0
    0.6631  -29.4165  -79.2692 O   0  0  0  0  0  0  0  0  0  0  0  0
   -1.5148  -30.1071  -80.4635 O   0  0  0  0  0  0  0  0  0  0  0  0
    4.0353  -30.5428  -81.8244 C   0  0  1  0  0  0  0  0  0  0  0  0
    4.9227  -30.4003  -80.7461 C   0  0  2  0  0  0  0  0  0  0  0  0
    4.8224  -30.5836  -79.2519 C   0  0  0  0  0  0  0  0  0  0  0  0
    3.3857  -30.3770  -78.7606 C   0  0  0  0  0  0  0  0  0  0  0  0
    3.0177  -29.0141  -78.9344 O   0  0  0  0  0  0  0  0  0  0  0  0
  1 11  1  0  0  0  0
  3 13  1  1  0  0  0
  3 17  2  0  0  0  0
  3 20  1  0  0  0  0
  3 26  1  0  0  0  0
  4 14  1  6  0  0  0
  4 18  1  0  0  0  0
  4 21  2  0  0  0  0
  4 20  1  0  0  0  0
  5 19  1  0  0  0  0
  5  7  1  0  0  0  0
  6  7  2  0  0  0  0
  6 12  1  0  0  0  0
  7  8  1  0  0  0  0
  8  9  1  0  0  0  0
  8 10  2  0  0  0  0
 10 11  1  0  0  0  0
 11 12  2  0  0  0  0
 15 23  1  0  0  0  0
 15 16  1  0  0  0  0
 16 19  1  0  0  0  0
 19 22  1  0  0  0  0
 22  2  1  1  0  0  0
 22 23  1  0  0  0  0
 23 24  1  1  0  0  0
 24 25  1  0  0  0  0
 25 26  1  0  0  0  0
M  CHG  2  13  -1  18  -1
M  END
>  <CHROM.1>
99.37110495,116.45161731,125.34568537,65.64097230,152.90362106,-67.15348354
-177.10683584,56.03975504,2.60494570,-30.30534792,-81.49755636,1.14466487
0.02460076,-2.14903006

>  <Name>
ligand

>  <RI>
0

>  <Rbt.Current_Directory>
/home/itssahil/PROJECTS/Mol_Feturizer/New_Systems/rnas/2CKY

>  <Rbt.Executable>
rbdock ($Id: //depot/dev/client3/rdock/2013.1/src/exe/rbdock.cxx#4 $)

>  <Rbt.Library>
libRbt.so (2013.1, Build901 2013/11/27)

>  <Rbt.Parameter_File>
/export/apps/rDock/src/rDock_2013.1_src/data/scripts/dock_solv.prm

>  <Rbt.Receptor>
prm/blind_docking_100.prm

>  <SCORE>
-16.6925

>  <SCORE.INTER>
-12.0138

>  <SCORE.INTER.CONST>
1

>  <SCORE.INTER.POLAR>
0

>  <SCORE.INTER.ROT>
8

>  <SCORE.INTER.SOLV>
16.2978

>  <SCORE.INTER.VDW>
-22.3751

>  <SCORE.INTER.norm>
-0.46207

>  <SCORE.INTRA>
-4.67874

>  <SCORE.INTRA.DIHEDRAL>
-9.65707

>  <SCORE.INTRA.DIHEDRAL.0>
16.4846

>  <SCORE.INTRA.POLAR>
0

>  <SCORE.INTRA.POLAR.0>
0

>  <SCORE.INTRA.REPUL>
0

>  <SCORE.INTRA.REPUL.0>
0

>  <SCORE.INTRA.SOLV>
2.31799

>  <SCORE.INTRA.SOLV.lig_0>
-82.6983

>  <SCORE.INTRA.VDW>
-1.0092

>  <SCORE.INTRA.VDW.0>
-2.11466

>  <SCORE.INTRA.norm>
-0.179952

>  <SCORE.RESTR>
0

>  <SCORE.RESTR.CAVITY>
0

>  <SCORE.RESTR.norm>
0

>  <SCORE.SYSTEM>
0

>  <SCORE.SYSTEM.CONST>
0

>  <SCORE.SYSTEM.DIHEDRAL>
0

>  <SCORE.SYSTEM.SOLV>
0

>  <SCORE.SYSTEM.norm>
0

>  <SCORE.heavy>
26

>  <SCORE.norm>
-0.642021

>  <RMSD>
20.341

$$$$
ligand
 OpenBabel11021811423D
libRbt.so/2013.1/901 2013/11/27
 26 27  0  0  0  0  0  0  0  0999 V2000
  -13.1401  -12.8729  -74.9581 C   0  0  0  0  0  0  0  0  0  0  0  0
   -7.9027   -9.3400  -74.9195 C   0  0  0  0  0  0  0  0  0  0  0  0
   -9.3585   -8.3194  -78.5849 P   0  0  2  0  0  0  0  0  0  0  0  0
  -11.7875   -7.3228  -77.7032 P   0  0  2  0  0  0  0  0  0  0  0  0
  -10.3386   -8.1523  -73.3048 C   0  0  0  0  0  0  0  0  0  0  0  0
  -10.4127  -10.4913  -74.1318 C   0  0  0  0  0  0  0  0  0  0  0  0
  -11.1182   -9.3567  -73.7524 C   0  0  0  0  0  0  0  0  0  0  0  0
  -12.5155   -9.4006  -73.7504 C   0  0  0  0  0  0  0  0  0  0  0  0
  -13.2968   -8.3806  -73.3941 N   0  0  0  0  0  0  0  0  0  0  0  0
  -13.1457  -10.5536  -74.1411 N   0  0  0  0  0  0  0  0  0  0  0  0
  -12.4245  -11.6479  -74.5281 C   0  0  0  0  0  0  0  0  0  0  0  0
  -11.0664  -11.6390  -74.5261 N   0  0  0  0  0  0  0  0  0  0  0  0
   -8.8222   -8.9593  -79.8501 O   0  5  0  0  0  0  0  0  0  0  0  0
  -11.4452   -5.8700  -77.4612 O   0  0  0  0  0  0  0  0  0  0  0  0
   -8.7971   -5.6523  -75.9015 S   0  0  0  0  0  0  0  0  0  0  0  0
   -9.8090   -6.2029  -74.7486 C   0  0  0  0  0  0  0  0  0  0  0  0
   -9.1627   -9.3437  -77.4703 O   0  0  0  0  0  0  0  0  0  0  0  0
  -11.4688   -8.1839  -76.4980 O   0  5  0  0  0  0  0  0  0  0  0  0
   -9.5749   -7.5034  -74.3436 N   0  0  0  0  0  0  0  0  0  0  0  0
  -10.8620   -7.8236  -78.9006 O   0  0  0  0  0  0  0  0  0  0  0  0
  -13.2601   -7.4121  -78.0486 O   0  0  0  0  0  0  0  0  0  0  0  0
   -8.5044   -7.9971  -75.0478 C   0  0  1  0  0  0  0  0  0  0  0  0
   -8.0001   -7.0358  -75.9377 C   0  0  2  0  0  0  0  0  0  0  0  0
   -6.8630   -6.9934  -76.9285 C   0  0  0  0  0  0  0  0  0  0  0  0
   -7.3389   -6.5082  -78.3020 C   0  0  0  0  0  0  0  0  0  0  0  0
   -8.7216   -6.8044  -78.4553 O   0  0  0  0  0  0  0  0  0  0  0  0
  1 11  1  0  0  0  0
  3 13  1  6  0  0  0
  3 17  2  0  0  0  0
  3 20  1  0  0  0  0
  3 26  1  0  0  0  0
  4 14  1  1  0  0  0
  4 18  1  0  0  0  0
  4 21  2  0  0  0  0
  4 20  1  0  0  0  0
  5 19  1  0  0  0  0
  5  7  1  0  0  0  0
  6  7  2  0  0  0  0
  6 12  1  0  0  0  0
  7  8  1  0  0  0  0
  8  9  1  0  0  0  0
  8 10  2  0  0  0  0
 10 11  1  0  0  0  0
 11 12  2  0  0  0  0
 15 23  1  0  0  0  0
 15 16  1  0  0  0  0
 16 19  1  0  0  0  0
 19 22  1  0  0  0  0
 22  2  1  1  0  0  0
 22 23  1  0  0  0  0
 23 24  1  1  0  0  0
 24 25  1  0  0  0  0
 25 26  1  0  0  0  0
M  CHG  2  13  -1  18  -1
M  END
>  <CHROM.1>
169.99982644,117.38860865,68.20603911,83.83713738,-51.27907370,-26.16270233
-67.76280474,-63.31115063,-10.30740596,-8.25647514,-76.26889693,2.33182636
0.59869890,1.86130655

>  <Name>
ligand

>  <RI>
0

>  <Rbt.Current_Directory>
/home/itssahil/PROJECTS/Mol_Feturizer/New_Systems/rnas/2CKY

>  <Rbt.Executable>
rbdock ($Id: //depot/dev/client3/rdock/2013.1/src/exe/rbdock.cxx#4 $)

>  <Rbt.Library>
libRbt.so (2013.1, Build901 2013/11/27)

>  <Rbt.Parameter_File>
/export/apps/rDock/src/rDock_2013.1_src/data/scripts/dock_solv.prm

>  <Rbt.Receptor>
prm/blind_docking_80.prm

>  <SCORE>
6.65449

>  <SCORE.INTER>
3.33219

>  <SCORE.INTER.CONST>
1

>  <SCORE.INTER.POLAR>
0

>  <SCORE.INTER.ROT>
8

>  <SCORE.INTER.SOLV>
16.7463

>  <SCORE.INTER.VDW>
-12.294

>  <SCORE.INTER.norm>
0.128161

>  <SCORE.INTRA>
-0.987302

>  <SCORE.INTRA.DIHEDRAL>
-6.60482

>  <SCORE.INTRA.DIHEDRAL.0>
16.4846

>  <SCORE.INTRA.POLAR>
0

>  <SCORE.INTRA.POLAR.0>
0

>  <SCORE.INTRA.REPUL>
0

>  <SCORE.INTRA.REPUL.0>
0

>  <SCORE.INTRA.SOLV>
7.44788

>  <SCORE.INTRA.SOLV.lig_0>
-82.6983

>  <SCORE.INTRA.VDW>
-1.40883

>  <SCORE.INTRA.VDW.0>
-2.11466

>  <SCORE.INTRA.norm>
-0.0379732

>  <SCORE.RESTR>
4.3096

>  <SCORE.RESTR.CAVITY>
4.3096

>  <SCORE.RESTR.norm>
0.165754

>  <SCORE.SYSTEM>
0

>  <SCORE.SYSTEM.CONST>
0

>  <SCORE.SYSTEM.DIHEDRAL>
0

>  <SCORE.SYSTEM.SOLV>
0

>  <SCORE.SYSTEM.norm>
0

>  <SCORE.heavy>
26

>  <SCORE.norm>
0.255942

>  <RMSD>
23.298

$$$$
ligand
 OpenBabel11021811423D
libRbt.so/2013.1/901 2013/11/27
 26 27  0  0  0  0  0  0  0  0999 V2000
  -12.4989  -13.0992  -74.0285 C   0  0  0  0  0  0  0  0  0  0  0  0
  -12.5995   -8.8143  -79.3441 C   0  0  0  0  0  0  0  0  0  0  0  0
   -7.9751   -7.9572  -77.4168 P   0  0  2  0  0  0  0  0  0  0  0  0
   -9.0638   -8.5424  -74.9384 P   0  0  2  0  0  0  0  0  0  0  0  0
  -14.6908   -8.7038  -76.9850 C   0  0  0  0  0  0  0  0  0  0  0  0
  -14.7174  -11.0572  -76.1967 C   0  0  0  0  0  0  0  0  0  0  0  0
  -14.0902   -9.8182  -76.1750 C   0  0  0  0  0  0  0  0  0  0  0  0
  -12.9040   -9.6753  -75.4492 C   0  0  0  0  0  0  0  0  0  0  0  0
  -12.2082   -8.5409  -75.3661 N   0  0  0  0  0  0  0  0  0  0  0  0
  -12.4074  -10.7553  -74.7663 N   0  0  0  0  0  0  0  0  0  0  0  0
  -13.0576  -11.9570  -74.7906 C   0  0  0  0  0  0  0  0  0  0  0  0
  -14.2037  -12.1290  -75.4987 N   0  0  0  0  0  0  0  0  0  0  0  0
   -7.4981   -8.7798  -78.5974 O   0  5  0  0  0  0  0  0  0  0  0  0
   -9.9476   -9.6112  -74.3357 O   0  0  0  0  0  0  0  0  0  0  0  0
  -12.4995   -5.4689  -77.3041 S   0  0  0  0  0  0  0  0  0  0  0  0
  -13.6463   -6.4672  -76.7173 C   0  0  0  0  0  0  0  0  0  0  0  0
   -6.7334   -7.2933  -76.8274 O   0  0  0  0  0  0  0  0  0  0  0  0
   -9.7351   -7.1841  -74.9248 O   0  5  0  0  0  0  0  0  0  0  0  0
  -13.7616   -7.6733  -77.3824 N   0  0  0  0  0  0  0  0  0  0  0  0
   -8.8312   -8.9400  -76.4644 O   0  0  0  0  0  0  0  0  0  0  0  0
   -7.7658   -8.5041  -74.1576 O   0  0  0  0  0  0  0  0  0  0  0  0
  -12.8355   -7.7068  -78.3956 C   0  0  1  0  0  0  0  0  0  0  0  0
  -12.0809   -6.5236  -78.4280 C   0  0  2  0  0  0  0  0  0  0  0  0
  -10.9466   -6.0058  -79.2776 C   0  0  0  0  0  0  0  0  0  0  0  0
   -9.7421   -6.9521  -79.2352 C   0  0  0  0  0  0  0  0  0  0  0  0
   -9.2642   -7.0499  -77.8992 O   0  0  0  0  0  0  0  0  0  0  0  0
  1 11  1  0  0  0  0
  3 13  1  6  0  0  0
  3 17  2  0  0  0  0
  3 20  1  0  0  0  0
  3 26  1  0  0  0  0
  4 14  1  1  0  0  0
  4 18  1  0  0  0  0
  4 21  2  0  0  0  0
  4 20  1  0  0  0  0
  5 19  1  0  0  0  0
  5  7  1  0  0  0  0
  6  7  2  0  0  0  0
  6 12  1  0  0  0  0
  7  8  1  0  0  0  0
  8  9  1  0  0  0  0
  8 10  2  0  0  0  0
 10 11  1  0  0  0  0
 11 12  2  0  0  0  0
 15 23  1  0  0  0  0
 15 16  1  0  0  0  0
 16 19  1  0  0  0  0
 19 22  1  0  0  0  0
 22  2  1  1  0  0  0
 22 23  1  0  0  0  0
 23 24  1  1  0  0  0
 24 25  1  0  0  0  0
 25 26  1  0  0  0  0
M  CHG  2  13  -1  18  -1
M  END
>  <CHROM.1>
159.88732781,-99.49406411,-154.99155576,177.21656445,122.13776947,-61.38185624
-179.55589550,-6.42759688,-11.03617244,-8.47388079,-76.55940611,-2.58234103
-0.15011930,-0.69175225

>  <Name>
ligand

>  <RI>
0

>  <Rbt.Current_Directory>
/home/itssahil/PROJECTS/Mol_Feturizer/New_Systems/rnas/2CKY

>  <Rbt.Executable>
rbdock ($Id: //depot/dev/client3/rdock/2013.1/src/exe/rbdock.cxx#4 $)

>  <Rbt.Library>
libRbt.so (2013.1, Build901 2013/11/27)

>  <Rbt.Parameter_File>
/export/apps/rDock/src/rDock_2013.1_src/data/scripts/dock_solv.prm

>  <Rbt.Receptor>
prm/blind_docking_80.prm

>  <SCORE>
-6.17346

>  <SCORE.INTER>
-6.31636

>  <SCORE.INTER.CONST>
1

>  <SCORE.INTER.POLAR>
0

>  <SCORE.INTER.ROT>
8

>  <SCORE.INTER.SOLV>
9.20031

>  <SCORE.INTER.VDW>
-16.211

>  <SCORE.INTER.norm>
-0.242937

>  <SCORE.INTRA>
-2.81325

>  <SCORE.INTRA.DIHEDRAL>
-8.71127

>  <SCORE.INTRA.DIHEDRAL.0>
16.4846

>  <SCORE.INTRA.POLAR>
0

>  <SCORE.INTRA.POLAR.0>
0

>  <SCORE.INTRA.REPUL>
0.0152385

>  <SCORE.INTRA.REPUL.0>
0

>  <SCORE.INTRA.SOLV>
9.98919

>  <SCORE.INTRA.SOLV.lig_0>
-82.6983

>  <SCORE.INTRA.VDW>
-3.5284

>  <SCORE.INTRA.VDW.0>
-2.11466

>  <SCORE.INTRA.norm>
-0.108202

>  <SCORE.RESTR>
2.95615

>  <SCORE.RESTR.CAVITY>
2.95615

>  <SCORE.RESTR.norm>
0.113698

>  <SCORE.SYSTEM>
0

>  <SCORE.SYSTEM.CONST>
0

>  <SCORE.SYSTEM.DIHEDRAL>
0

>  <SCORE.SYSTEM.SOLV>
0

>  <SCORE.SYSTEM.norm>
0

>  <SCORE.heavy>
26

>  <SCORE.norm>
-0.237441

>  <RMSD>
23.519

$$$$
ligand
 OpenBabel11021811423D
libRbt.so/2013.1/901 2013/11/27
 26 27  0  0  0  0  0  0  0  0999 V2000
  -12.3991  -13.0025  -74.0289 C   0  0  0  0  0  0  0  0  0  0  0  0
  -12.5161   -8.8329  -79.4220 C   0  0  0  0  0  0  0  0  0  0  0  0
   -7.9793   -7.9570  -77.3164 P   0  0  2  0  0  0  0  0  0  0  0  0
   -9.6528   -8.1359  -75.1169 P   0  0  2  0  0  0  0  0  0  0  0  0
  -14.7057   -8.7843  -77.1517 C   0  0  0  0  0  0  0  0  0  0  0  0
  -12.9124   -9.7391  -75.7258 C   0  0  0  0  0  0  0  0  0  0  0  0
  -14.1314   -9.9282  -76.3640 C   0  0  0  0  0  0  0  0  0  0  0  0
  -14.7950  -11.1481  -76.2029 C   0  0  0  0  0  0  0  0  0  0  0  0
  -15.9734  -11.4388  -76.7548 N   0  0  0  0  0  0  0  0  0  0  0  0
  -14.2140  -12.1257  -75.4374 N   0  0  0  0  0  0  0  0  0  0  0  0
  -13.0039  -11.9174  -74.8377 C   0  0  0  0  0  0  0  0  0  0  0  0
  -12.3434  -10.7374  -74.9646 N   0  0  0  0  0  0  0  0  0  0  0  0
   -7.4183   -8.9431  -78.3219 O   0  5  0  0  0  0  0  0  0  0  0  0
   -9.1316   -6.7517  -74.8021 O   0  0  0  0  0  0  0  0  0  0  0  0
  -12.5121   -5.5386  -77.2981 S   0  0  0  0  0  0  0  0  0  0  0  0
  -13.6799   -6.5531  -76.7852 C   0  0  0  0  0  0  0  0  0  0  0  0
   -6.8517   -6.9775  -77.0018 O   0  0  0  0  0  0  0  0  0  0  0  0
   -9.7369   -9.0008  -73.8757 O   0  5  0  0  0  0  0  0  0  0  0  0
  -13.7635   -7.7427  -77.4839 N   0  0  0  0  0  0  0  0  0  0  0  0
   -8.5962   -8.8168  -76.0973 O   0  0  0  0  0  0  0  0  0  0  0  0
  -11.0164   -7.9941  -75.7621 O   0  0  0  0  0  0  0  0  0  0  0  0
  -12.7952   -7.7496  -78.4575 C   0  0  1  0  0  0  0  0  0  0  0  0
  -12.0434   -6.5645  -78.4289 C   0  0  2  0  0  0  0  0  0  0  0  0
  -10.8756   -6.0238  -79.2166 C   0  0  0  0  0  0  0  0  0  0  0  0
   -9.6969   -7.0031  -79.2081 C   0  0  0  0  0  0  0  0  0  0  0  0
   -9.4332   -7.4143  -77.8724 O   0  0  0  0  0  0  0  0  0  0  0  0
  1 11  1  0  0  0  0
  3 13  1  6  0  0  0
  3 17  2  0  0  0  0
  3 20  1  0  0  0  0
  3 26  1  0  0  0  0
  4 14  1  1  0  0  0
  4 18  1  0  0  0  0
  4 21  2  0  0  0  0
  4 20  1  0  0  0  0
  5 19  1  0  0  0  0
  5  7  1  0  0  0  0
  6  7  2  0  0  0  0
  6 12  1  0  0  0  0
  7  8  1  0  0  0  0
  8  9  1  0  0  0  0
  8 10  2  0  0  0  0
 10 11  1  0  0  0  0
 11 12  2  0  0  0  0
 15 23  1  0  0  0  0
 15 16  1  0  0  0  0
 16 19  1  0  0  0  0
 19 22  1  0  0  0  0
 22  2  1  1  0  0  0
 22 23  1  0  0  0  0
 23 24  1  1  0  0  0
 24 25  1  0  0  0  0
 25 26  1  0  0  0  0
M  CHG  2  13  -1  18  -1
M  END
>  <CHROM.1>
-160.74742671,-100.45919180,17.11819157,-43.54548662,125.15557107,-49.43711421
-155.04264341,-44.99308807,-11.28843084,-8.50530137,-76.66348691,-2.56992695
-0.20013073,-0.65517398

>  <Name>
ligand

>  <RI>
0

>  <Rbt.Current_Directory>
/home/itssahil/PROJECTS/Mol_Feturizer/New_Systems/rnas/2CKY

>  <Rbt.Executable>
rbdock ($Id: //depot/dev/client3/rdock/2013.1/src/exe/rbdock.cxx#4 $)

>  <Rbt.Library>
libRbt.so (2013.1, Build901 2013/11/27)

>  <Rbt.Parameter_File>
/export/apps/rDock/src/rDock_2013.1_src/data/scripts/dock_solv.prm

>  <Rbt.Receptor>
prm/blind_docking_80.prm

>  <SCORE>
-8.89441

>  <SCORE.INTER>
-5.77357

>  <SCORE.INTER.CONST>
1

>  <SCORE.INTER.POLAR>
0

>  <SCORE.INTER.ROT>
8

>  <SCORE.INTER.SOLV>
11.3677

>  <SCORE.INTER.VDW>
-16.5716

>  <SCORE.INTER.norm>
-0.22206

>  <SCORE.INTRA>
-5.39275

>  <SCORE.INTRA.DIHEDRAL>
-7.5885

>  <SCORE.INTRA.DIHEDRAL.0>
16.4846

>  <SCORE.INTRA.POLAR>
0

>  <SCORE.INTRA.POLAR.0>
0

>  <SCORE.INTRA.REPUL>
0

>  <SCORE.INTRA.REPUL.0>
0

>  <SCORE.INTRA.SOLV>
2.65242

>  <SCORE.INTRA.SOLV.lig_0>
-82.6983

>  <SCORE.INTRA.VDW>
-2.9247

>  <SCORE.INTRA.VDW.0>
-2.11466

>  <SCORE.INTRA.norm>
-0.207413

>  <SCORE.RESTR>
2.2719

>  <SCORE.RESTR.CAVITY>
2.2719

>  <SCORE.RESTR.norm>
0.0873809

>  <SCORE.SYSTEM>
0

>  <SCORE.SYSTEM.CONST>
0

>  <SCORE.SYSTEM.DIHEDRAL>
0

>  <SCORE.SYSTEM.SOLV>
0

>  <SCORE.SYSTEM.norm>
0

>  <SCORE.heavy>
26

>  <SCORE.norm>
-0.342093

>  <RMSD>
23.601

$$$$
ligand
 OpenBabel11021811423D
libRbt.so/2013.1/901 2013/11/27
 26 27  0  0  0  0  0  0  0  0999 V2000
  -12.4563  -13.0468  -74.0735 C   0  0  0  0  0  0  0  0  0  0  0  0
  -12.7118   -8.8758  -79.3565 C   0  0  0  0  0  0  0  0  0  0  0  0
   -7.9920   -7.9483  -77.3662 P   0  0  2  0  0  0  0  0  0  0  0  0
   -9.6433   -8.1785  -75.1547 P   0  0  2  0  0  0  0  0  0  0  0  0
  -14.7762   -8.6831  -76.9790 C   0  0  0  0  0  0  0  0  0  0  0  0
  -13.0086   -9.6857  -75.5538 C   0  0  0  0  0  0  0  0  0  0  0  0
  -14.1960   -9.8637  -76.2521 C   0  0  0  0  0  0  0  0  0  0  0  0
  -14.8260  -11.1107  -76.2046 C   0  0  0  0  0  0  0  0  0  0  0  0
  -15.9728  -11.3950  -76.8225 N   0  0  0  0  0  0  0  0  0  0  0  0
  -14.2435  -12.1237  -75.4878 N   0  0  0  0  0  0  0  0  0  0  0  0
  -13.0643  -11.9242  -74.8268 C   0  0  0  0  0  0  0  0  0  0  0  0
  -12.4373  -10.7195  -74.8432 N   0  0  0  0  0  0  0  0  0  0  0  0
   -7.4552   -8.9035  -78.4139 O   0  5  0  0  0  0  0  0  0  0  0  0
  -10.9767   -8.0870  -75.8619 O   0  0  0  0  0  0  0  0  0  0  0  0
  -12.4696   -5.5322  -77.3255 S   0  0  0  0  0  0  0  0  0  0  0  0
  -13.6472   -6.4862  -76.7261 C   0  0  0  0  0  0  0  0  0  0  0  0
   -6.8439   -7.0046  -77.0182 O   0  0  0  0  0  0  0  0  0  0  0  0
   -9.0989   -6.8093  -74.8017 O   0  5  0  0  0  0  0  0  0  0  0  0
  -13.8131   -7.6886  -77.3872 N   0  0  0  0  0  0  0  0  0  0  0  0
   -8.6202   -8.8447  -76.1796 O   0  0  0  0  0  0  0  0  0  0  0  0
   -9.8247   -9.0188  -73.9069 O   0  0  0  0  0  0  0  0  0  0  0  0
  -12.8981   -7.7584  -78.4086 C   0  0  1  0  0  0  0  0  0  0  0  0
  -12.1006   -6.6040  -78.4506 C   0  0  2  0  0  0  0  0  0  0  0  0
  -10.9557   -6.1303  -79.3116 C   0  0  0  0  0  0  0  0  0  0  0  0
   -9.7734   -7.1033  -79.2508 C   0  0  0  0  0  0  0  0  0  0  0  0
   -9.4375   -7.3552  -77.8919 O   0  0  0  0  0  0  0  0  0  0  0  0
  1 11  1  0  0  0  0
  3 13  1  6  0  0  0
  3 17  2  0  0  0  0
  3 20  1  0  0  0  0
  3 26  1  0  0  0  0
  4 14  1  6  0  0  0
  4 18  1  0  0  0  0
  4 21  2  0  0  0  0
  4 20  1  0  0  0  0
  5 19  1  0  0  0  0
  5  7  1  0  0  0  0
  6  7  2  0  0  0  0
  6 12  1  0  0  0  0
  7  8  1  0  0  0  0
  8  9  1  0  0  0  0
  8 10  2  0  0  0  0
 10 11  1  0  0  0  0
 11 12  2  0  0  0  0
 15 23  1  0  0  0  0
 15 16  1  0  0  0  0
 16 19  1  0  0  0  0
 19 22  1  0  0  0  0
 22  2  1  1  0  0  0
 22 23  1  0  0  0  0
 23 24  1  1  0  0  0
 24 25  1  0  0  0  0
 25 26  1  0  0  0  0
M  CHG  2  13  -1  18  -1
M  END
>  <CHROM.1>
-161.57902727,-103.43500331,26.56194817,77.76835396,120.74954019,-51.86995369
-160.32439458,-33.42328497,-11.32157477,-8.51002743,-76.66893249,-2.57250727
-0.18655628,-0.65882063

>  <Name>
ligand

>  <RI>
0

>  <Rbt.Current_Directory>
/home/itssahil/PROJECTS/Mol_Feturizer/New_Systems/rnas/2CKY

>  <Rbt.Executable>
rbdock ($Id: //depot/dev/client3/rdock/2013.1/src/exe/rbdock.cxx#4 $)

>  <Rbt.Library>
libRbt.so (2013.1, Build901 2013/11/27)

>  <Rbt.Parameter_File>
/export/apps/rDock/src/rDock_2013.1_src/data/scripts/dock_solv.prm

>  <Rbt.Receptor>
prm/blind_docking_80.prm

>  <SCORE>
-10.8685

>  <SCORE.INTER>
-6.01889

>  <SCORE.INTER.CONST>
1

>  <SCORE.INTER.POLAR>
0

>  <SCORE.INTER.ROT>
8

>  <SCORE.INTER.SOLV>
11.1149

>  <SCORE.INTER.VDW>
-16.6509

>  <SCORE.INTER.norm>
-0.231496

>  <SCORE.INTRA>
-7.28727

>  <SCORE.INTRA.DIHEDRAL>
-8.00254

>  <SCORE.INTRA.DIHEDRAL.0>
16.4846

>  <SCORE.INTRA.POLAR>
0

>  <SCORE.INTRA.POLAR.0>
0

>  <SCORE.INTRA.REPUL>
0

>  <SCORE.INTRA.REPUL.0>
0

>  <SCORE.INTRA.SOLV>
-0.450409

>  <SCORE.INTRA.SOLV.lig_0>
-82.6983

>  <SCORE.INTRA.VDW>
-3.0608

>  <SCORE.INTRA.VDW.0>
-2.11466

>  <SCORE.INTRA.norm>
-0.28028

>  <SCORE.RESTR>
2.4377

>  <SCORE.RESTR.CAVITY>
2.4377

>  <SCORE.RESTR.norm>
0.0937577

>  <SCORE.SYSTEM>
0

>  <SCORE.SYSTEM.CONST>
0

>  <SCORE.SYSTEM.DIHEDRAL>
0

>  <SCORE.SYSTEM.SOLV>
0

>  <SCORE.SYSTEM.norm>
0

>  <SCORE.heavy>
26

>  <SCORE.norm>
-0.418018

>  <RMSD>
23.609

$$$$
ligand
 OpenBabel11021811423D
libRbt.so/2013.1/901 2013/11/27
 26 27  0  0  0  0  0  0  0  0999 V2000
  -16.5898  -12.5811  -76.4820 C   0  0  0  0  0  0  0  0  0  0  0  0
   -9.8224   -7.6736  -73.9840 C   0  0  0  0  0  0  0  0  0  0  0  0
   -8.9059   -5.6544  -78.3259 P   0  0  2  0  0  0  0  0  0  0  0  0
  -11.5143   -4.8175  -77.9177 P   0  0  2  0  0  0  0  0  0  0  0  0
  -12.6393   -8.7236  -74.9398 C   0  0  0  0  0  0  0  0  0  0  0  0
  -13.9301  -10.8138  -74.5858 C   0  0  0  0  0  0  0  0  0  0  0  0
  -13.6673   -9.7191  -75.3991 C   0  0  0  0  0  0  0  0  0  0  0  0
  -14.4043   -9.5612  -76.5765 C   0  0  0  0  0  0  0  0  0  0  0  0
  -14.2497   -8.5460  -77.4270 N   0  0  0  0  0  0  0  0  0  0  0  0
  -15.3484  -10.5005  -76.9017 N   0  0  0  0  0  0  0  0  0  0  0  0
  -15.5709  -11.5779  -76.0911 C   0  0  0  0  0  0  0  0  0  0  0  0
  -14.8805  -11.7494  -74.9342 N   0  0  0  0  0  0  0  0  0  0  0  0
   -8.6074   -5.3038  -76.8816 O   0  5  0  0  0  0  0  0  0  0  0  0
  -11.2547   -3.5704  -78.7325 O   0  0  0  0  0  0  0  0  0  0  0  0
   -9.8121   -9.1219  -77.6262 S   0  0  0  0  0  0  0  0  0  0  0  0
  -11.2987   -9.2308  -76.9673 C   0  0  0  0  0  0  0  0  0  0  0  0
   -8.3161   -4.5285  -79.1710 O   0  0  0  0  0  0  0  0  0  0  0  0
  -11.2329   -4.5959  -76.4455 O   0  5  0  0  0  0  0  0  0  0  0  0
  -11.3975   -8.7506  -75.6750 N   0  0  0  0  0  0  0  0  0  0  0  0
  -10.4933   -5.9281  -78.4327 O   0  0  0  0  0  0  0  0  0  0  0  0
  -12.9566   -5.2308  -78.1292 O   0  0  0  0  0  0  0  0  0  0  0  0
  -10.1659   -8.2871  -75.2830 C   0  0  1  0  0  0  0  0  0  0  0  0
   -9.2182   -8.4471  -76.3061 C   0  0  2  0  0  0  0  0  0  0  0  0
   -7.7533   -8.1212  -76.4624 C   0  0  0  0  0  0  0  0  0  0  0  0
   -7.3887   -7.8865  -77.9322 C   0  0  0  0  0  0  0  0  0  0  0  0
   -8.4625   -7.2208  -78.5854 O   0  0  0  0  0  0  0  0  0  0  0  0
  1 11  1  0  0  0  0
  3 13  1  1  0  0  0
  3 17  2  0  0  0  0
  3 20  1  0  0  0  0
  3 26  1  0  0  0  0
  4 14  1  6  0  0  0
  4 18  1  0  0  0  0
  4 21  2  0  0  0  0
  4 20  1  0  0  0  0
  5 19  1  0  0  0  0
  5  7  1  0  0  0  0
  6  7  2  0  0  0  0
  6 12  1  0  0  0  0
  7  8  1  0  0  0  0
  8  9  1  0  0  0  0
  8 10  2  0  0  0  0
 10 11  1  0  0  0  0
 11 12  2  0  0  0  0
 15 23  1  0  0  0  0
 15 16  1  0  0  0  0
 16 19  1  0  0  0  0
 19 22  1  0  0  0  0
 22  2  1  6  0  0  0
 22 23  1  0  0  0  0
 23 24  1  6  0  0  0
 24 25  1  0  0  0  0
 25 26  1  0  0  0  0
M  CHG  2  13  -1  18  -1
M  END
>  <CHROM.1>
54.12467151,23.92495813,108.03818281,60.12203434,26.91848277,36.61292875
70.23085853,-31.64736705,-11.27931032,-7.69038256,-76.98720290,2.33382939
0.04071360,2.72439301

>  <Name>
ligand

>  <RI>
0

>  <Rbt.Current_Directory>
/home/itssahil/PROJECTS/Mol_Feturizer/New_Systems/rnas/2CKY

>  <Rbt.Executable>
rbdock ($Id: //depot/dev/client3/rdock/2013.1/src/exe/rbdock.cxx#4 $)

>  <Rbt.Library>
libRbt.so (2013.1, Build901 2013/11/27)

>  <Rbt.Parameter_File>
/export/apps/rDock/src/rDock_2013.1_src/data/scripts/dock_solv.prm

>  <Rbt.Receptor>
prm/blind_docking_80.prm

>  <SCORE>
4.51316

>  <SCORE.INTER>
-1.35202

>  <SCORE.INTER.CONST>
1

>  <SCORE.INTER.POLAR>
0

>  <SCORE.INTER.ROT>
8

>  <SCORE.INTER.SOLV>
20.0081

>  <SCORE.INTER.VDW>
-16.504

>  <SCORE.INTER.norm>
-0.0520006

>  <SCORE.INTRA>
4.3025

>  <SCORE.INTRA.DIHEDRAL>
-7.81459

>  <SCORE.INTRA.DIHEDRAL.0>
16.4846

>  <SCORE.INTRA.POLAR>
0

>  <SCORE.INTRA.POLAR.0>
0

>  <SCORE.INTRA.REPUL>
0.164766

>  <SCORE.INTRA.REPUL.0>
0

>  <SCORE.INTRA.SOLV>
5.28118

>  <SCORE.INTRA.SOLV.lig_0>
-82.6983

>  <SCORE.INTRA.VDW>
4.74537

>  <SCORE.INTRA.VDW.0>
-2.11466

>  <SCORE.INTRA.norm>
0.165481

>  <SCORE.RESTR>
1.56269

>  <SCORE.RESTR.CAVITY>
1.56269

>  <SCORE.RESTR.norm>
0.0601033

>  <SCORE.SYSTEM>
0

>  <SCORE.SYSTEM.CONST>
0

>  <SCORE.SYSTEM.DIHEDRAL>
0

>  <SCORE.SYSTEM.SOLV>
0

>  <SCORE.SYSTEM.norm>
0

>  <SCORE.heavy>
26

>  <SCORE.norm>
0.173583

>  <RMSD>
23.626

$$$$
ligand
 OpenBabel11021811423D
libRbt.so/2013.1/901 2013/11/27
 26 27  0  0  0  0  0  0  0  0999 V2000
  -16.0484  -10.3992  -77.1210 C   0  0  0  0  0  0  0  0  0  0  0  0
   -9.4019   -6.4431  -74.2129 C   0  0  0  0  0  0  0  0  0  0  0  0
  -10.1742   -6.3854  -78.6582 P   0  0  2  0  0  0  0  0  0  0  0  0
  -12.1518   -4.7811  -77.5693 P   0  0  2  0  0  0  0  0  0  0  0  0
  -11.2650   -8.9875  -74.2942 C   0  0  0  0  0  0  0  0  0  0  0  0
  -13.1907   -8.4524  -75.7659 C   0  0  0  0  0  0  0  0  0  0  0  0
  -12.5274   -9.4003  -74.9974 C   0  0  0  0  0  0  0  0  0  0  0  0
  -13.0286  -10.7046  -74.9547 C   0  0  0  0  0  0  0  0  0  0  0  0
  -12.4712  -11.6995  -74.2638 N   0  0  0  0  0  0  0  0  0  0  0  0
  -14.1685  -11.0029  -75.6555 N   0  0  0  0  0  0  0  0  0  0  0  0
  -14.8103  -10.0438  -76.3873 C   0  0  0  0  0  0  0  0  0  0  0  0
  -14.3384   -8.7723  -76.4590 N   0  0  0  0  0  0  0  0  0  0  0  0
  -10.7273   -5.9957  -80.0148 O   0  5  0  0  0  0  0  0  0  0  0  0
  -12.9733   -6.0082  -77.2440 O   0  0  0  0  0  0  0  0  0  0  0  0
   -8.5340   -8.9406  -77.1063 S   0  0  0  0  0  0  0  0  0  0  0  0
   -9.7829   -9.4979  -76.2198 C   0  0  0  0  0  0  0  0  0  0  0  0
  -10.6401   -7.8159  -78.4003 O   0  0  0  0  0  0  0  0  0  0  0  0
  -12.4912   -4.2236  -78.9367 O   0  5  0  0  0  0  0  0  0  0  0  0
  -10.1557   -8.6843  -75.1665 N   0  0  0  0  0  0  0  0  0  0  0  0
  -10.6266   -5.2426  -77.6117 O   0  0  0  0  0  0  0  0  0  0  0  0
  -12.4013   -3.7440  -76.4932 O   0  0  0  0  0  0  0  0  0  0  0  0
   -9.3425   -7.5780  -75.1564 C   0  0  1  0  0  0  0  0  0  0  0  0
   -8.4095   -7.6288  -76.2040 C   0  0  2  0  0  0  0  0  0  0  0  0
   -7.3066   -6.7231  -76.6938 C   0  0  0  0  0  0  0  0  0  0  0  0
   -7.8703   -5.5311  -77.4746 C   0  0  0  0  0  0  0  0  0  0  0  0
   -8.5710   -6.0037  -78.6185 O   0  0  0  0  0  0  0  0  0  0  0  0
  1 11  1  0  0  0  0
  3 13  1  6  0  0  0
  3 17  2  0  0  0  0
  3 20  1  0  0  0  0
  3 26  1  0  0  0  0
  4 14  1  1  0  0  0
  4 18  1  0  0  0  0
  4 21  2  0  0  0  0
  4 20  1  0  0  0  0
  5 19  1  0  0  0  0
  5  7  1  0  0  0  0
  6  7  2  0  0  0  0
  6 12  1  0  0  0  0
  7  8  1  0  0  0  0
  8  9  1  0  0  0  0
  8 10  2  0  0  0  0
 10 11  1  0  0  0  0
 11 12  2  0  0  0  0
 15 23  1  0  0  0  0
 15 16  1  0  0  0  0
 16 19  1  0  0  0  0
 19 22  1  0  0  0  0
 22  2  1  6  0  0  0
 22 23  1  0  0  0  0
 23 24  1  6  0  0  0
 24 25  1  0  0  0  0
 25 26  1  0  0  0  0
M  CHG  2  13  -1  18  -1
M  END
>  <CHROM.1>
49.12441348,-46.85955672,-67.23162663,59.34119468,102.60165711,-61.49008918
89.88794071,144.53024323,-11.15036089,-7.48595232,-76.82675774,2.22060019
0.07919911,2.61187349

>  <Name>
ligand

>  <RI>
0

>  <Rbt.Current_Directory>
/home/itssahil/PROJECTS/Mol_Feturizer/New_Systems/rnas/2CKY

>  <Rbt.Executable>
rbdock ($Id: //depot/dev/client3/rdock/2013.1/src/exe/rbdock.cxx#4 $)

>  <Rbt.Library>
libRbt.so (2013.1, Build901 2013/11/27)

>  <Rbt.Parameter_File>
/export/apps/rDock/src/rDock_2013.1_src/data/scripts/dock_solv.prm

>  <Rbt.Receptor>
prm/blind_docking_80.prm

>  <SCORE>
-9.85587

>  <SCORE.INTER>
-7.5336

>  <SCORE.INTER.CONST>
1

>  <SCORE.INTER.POLAR>
0

>  <SCORE.INTER.ROT>
8

>  <SCORE.INTER.SOLV>
19.2551

>  <SCORE.INTER.VDW>
-20.3741

>  <SCORE.INTER.norm>
-0.289754

>  <SCORE.INTRA>
-4.42754

>  <SCORE.INTRA.DIHEDRAL>
-6.64668

>  <SCORE.INTRA.DIHEDRAL.0>
16.4846

>  <SCORE.INTRA.POLAR>
0

>  <SCORE.INTRA.POLAR.0>
0

>  <SCORE.INTRA.REPUL>
0

>  <SCORE.INTRA.REPUL.0>
0

>  <SCORE.INTRA.SOLV>
3.52836

>  <SCORE.INTRA.SOLV.lig_0>
-82.6983

>  <SCORE.INTRA.VDW>
-2.86838

>  <SCORE.INTRA.VDW.0>
-2.11466

>  <SCORE.INTRA.norm>
-0.17029

>  <SCORE.RESTR>
2.10527

>  <SCORE.RESTR.CAVITY>
2.10527

>  <SCORE.RESTR.norm>
0.0809719

>  <SCORE.SYSTEM>
0

>  <SCORE.SYSTEM.CONST>
0

>  <SCORE.SYSTEM.DIHEDRAL>
0

>  <SCORE.SYSTEM.SOLV>
0

>  <SCORE.SYSTEM.norm>
0

>  <SCORE.heavy>
26

>  <SCORE.norm>
-0.379072

>  <RMSD>
23.670

$$$$
ligand
 OpenBabel11021811423D
libRbt.so/2013.1/901 2013/11/27
 26 27  0  0  0  0  0  0  0  0999 V2000
  -12.0132  -14.0445  -73.9050 C   0  0  0  0  0  0  0  0  0  0  0  0
  -14.4263   -9.4380  -79.3212 C   0  0  0  0  0  0  0  0  0  0  0  0
   -9.7291   -5.9641  -76.7771 P   0  0  2  0  0  0  0  0  0  0  0  0
   -8.0072   -8.1329  -76.8208 P   0  0  2  0  0  0  0  0  0  0  0  0
  -15.5181  -10.3208  -76.4964 C   0  0  0  0  0  0  0  0  0  0  0  0
  -13.4096  -10.9108  -75.3273 C   0  0  0  0  0  0  0  0  0  0  0  0
  -14.6241  -11.3396  -75.8471 C   0  0  0  0  0  0  0  0  0  0  0  0
  -14.9859  -12.6815  -75.6969 C   0  0  0  0  0  0  0  0  0  0  0  0
  -16.1292  -13.2038  -76.1418 N   0  0  0  0  0  0  0  0  0  0  0  0
  -14.1238  -13.5360  -75.0597 N   0  0  0  0  0  0  0  0  0  0  0  0
  -12.9266  -13.0889  -74.5759 C   0  0  0  0  0  0  0  0  0  0  0  0
  -12.5551  -11.7879  -74.6944 N   0  0  0  0  0  0  0  0  0  0  0  0
   -8.7705   -5.2819  -77.7329 O   0  5  0  0  0  0  0  0  0  0  0  0
   -7.8409   -9.1040  -77.9679 O   0  0  0  0  0  0  0  0  0  0  0  0
  -13.8265   -6.7843  -76.4996 S   0  0  0  0  0  0  0  0  0  0  0  0
  -14.6079   -8.0868  -75.9087 C   0  0  0  0  0  0  0  0  0  0  0  0
   -9.5016   -5.3223  -75.4110 O   0  0  0  0  0  0  0  0  0  0  0  0
   -7.8773   -8.8217  -75.4776 O   0  5  0  0  0  0  0  0  0  0  0  0
  -14.8721   -9.0759  -76.8371 N   0  0  0  0  0  0  0  0  0  0  0  0
   -9.4897   -7.5546  -76.9147 O   0  0  0  0  0  0  0  0  0  0  0  0
   -6.9632   -7.0443  -76.9656 O   0  0  0  0  0  0  0  0  0  0  0  0
  -14.3783   -8.6786  -78.0553 C   0  0  1  0  0  0  0  0  0  0  0  0
  -13.7725   -7.4155  -77.9658 C   0  0  2  0  0  0  0  0  0  0  0  0
  -13.0646   -6.5018  -78.9356 C   0  0  0  0  0  0  0  0  0  0  0  0
  -11.5467   -6.5379  -78.7281 C   0  0  0  0  0  0  0  0  0  0  0  0
  -11.2290   -5.9752  -77.4610 O   0  0  0  0  0  0  0  0  0  0  0  0
  1 11  1  0  0  0  0
  3 13  1  6  0  0  0
  3 17  2  0  0  0  0
  3 20  1  0  0  0  0
  3 26  1  0  0  0  0
  4 14  1  6  0  0  0
  4 18  1  0  0  0  0
  4 21  2  0  0  0  0
  4 20  1  0  0  0  0
  5 19  1  0  0  0  0
  5  7  1  0  0  0  0
  6  7  2  0  0  0  0
  6 12  1  0  0  0  0
  7  8  1  0  0  0  0
  8  9  1  0  0  0  0
  8 10  2  0  0  0  0
 10 11  1  0  0  0  0
 11 12  2  0  0  0  0
 15 23  1  0  0  0  0
 15 16  1  0  0  0  0
 16 19  1  0  0  0  0
 19 22  1  0  0  0  0
 22  2  1  1  0  0  0
 22 23  1  0  0  0  0
 23 24  1  1  0  0  0
 24 25  1  0  0  0  0
 25 26  1  0  0  0  0
M  CHG  2  13  -1  18  -1
M  END
>  <CHROM.1>
50.20510688,-78.81403112,16.17030436,-133.23434138,75.64898932,-66.58342341
173.20873709,56.80167862,-11.79465864,-8.73740774,-76.63126779,-2.38125440
-0.15525876,-0.40484538

>  <Name>
ligand

>  <RI>
0

>  <Rbt.Current_Directory>
/home/itssahil/PROJECTS/Mol_Feturizer/New_Systems/rnas/2CKY

>  <Rbt.Executable>
rbdock ($Id: //depot/dev/client3/rdock/2013.1/src/exe/rbdock.cxx#4 $)

>  <Rbt.Library>
libRbt.so (2013.1, Build901 2013/11/27)

>  <Rbt.Parameter_File>
/export/apps/rDock/src/rDock_2013.1_src/data/scripts/dock_solv.prm

>  <Rbt.Receptor>
prm/blind_docking_80.prm

>  <SCORE>
-9.76475

>  <SCORE.INTER>
-8.88822

>  <SCORE.INTER.CONST>
1

>  <SCORE.INTER.POLAR>
0

>  <SCORE.INTER.ROT>
8

>  <SCORE.INTER.SOLV>
18.3576

>  <SCORE.INTER.VDW>
-20.978

>  <SCORE.INTER.norm>
-0.341855

>  <SCORE.INTRA>
-4.24376

>  <SCORE.INTRA.DIHEDRAL>
-8.80451

>  <SCORE.INTRA.DIHEDRAL.0>
16.4846

>  <SCORE.INTRA.POLAR>
0

>  <SCORE.INTRA.POLAR.0>
0

>  <SCORE.INTRA.REPUL>
0

>  <SCORE.INTRA.REPUL.0>
0

>  <SCORE.INTRA.SOLV>
1.50731

>  <SCORE.INTRA.SOLV.lig_0>
-82.6983

>  <SCORE.INTRA.VDW>
-0.595163

>  <SCORE.INTRA.VDW.0>
-2.11466

>  <SCORE.INTRA.norm>
-0.163222

>  <SCORE.RESTR>
3.36723

>  <SCORE.RESTR.CAVITY>
3.36723

>  <SCORE.RESTR.norm>
0.129509

>  <SCORE.SYSTEM>
0

>  <SCORE.SYSTEM.CONST>
0

>  <SCORE.SYSTEM.DIHEDRAL>
0

>  <SCORE.SYSTEM.SOLV>
0

>  <SCORE.SYSTEM.norm>
0

>  <SCORE.heavy>
26

>  <SCORE.norm>
-0.375567

>  <RMSD>
23.731

$$$$
ligand
 OpenBabel11021811423D
libRbt.so/2013.1/901 2013/11/27
 26 27  0  0  0  0  0  0  0  0999 V2000
  -15.7460  -12.5768  -75.8414 C   0  0  0  0  0  0  0  0  0  0  0  0
  -12.1685   -4.6562  -77.3840 C   0  0  0  0  0  0  0  0  0  0  0  0
   -7.7194   -7.7154  -76.9506 P   0  0  2  0  0  0  0  0  0  0  0  0
   -9.3233   -8.9454  -75.0572 P   0  0  2  0  0  0  0  0  0  0  0  0
  -13.8767   -7.2412  -76.7914 C   0  0  0  0  0  0  0  0  0  0  0  0
  -15.3469   -9.1788  -77.2862 C   0  0  0  0  0  0  0  0  0  0  0  0
  -14.3489   -8.6353  -76.4877 C   0  0  0  0  0  0  0  0  0  0  0  0
  -13.7909   -9.4225  -75.4761 C   0  0  0  0  0  0  0  0  0  0  0  0
  -12.8208   -9.0140  -74.6577 N   0  0  0  0  0  0  0  0  0  0  0  0
  -14.2585  -10.6978  -75.2909 N   0  0  0  0  0  0  0  0  0  0  0  0
  -15.2554  -11.1984  -76.0800 C   0  0  0  0  0  0  0  0  0  0  0  0
  -15.8061  -10.4619  -77.0795 N   0  0  0  0  0  0  0  0  0  0  0  0
   -7.3029   -8.0646  -78.3658 O   0  5  0  0  0  0  0  0  0  0  0  0
   -9.8377   -7.6588  -74.4516 O   0  0  0  0  0  0  0  0  0  0  0  0
  -10.5800   -7.9520  -78.7901 S   0  0  0  0  0  0  0  0  0  0  0  0
  -11.9784   -8.2712  -78.0163 C   0  0  0  0  0  0  0  0  0  0  0  0
   -6.4669   -7.8528  -76.0890 O   0  0  0  0  0  0  0  0  0  0  0  0
   -8.0355   -9.4001  -74.4013 O   0  5  0  0  0  0  0  0  0  0  0  0
  -12.6088   -7.1658  -77.4770 N   0  0  0  0  0  0  0  0  0  0  0  0
   -8.9929   -8.6381  -76.5861 O   0  0  0  0  0  0  0  0  0  0  0  0
  -10.3992  -10.0022  -74.9104 O   0  0  0  0  0  0  0  0  0  0  0  0
  -11.8572   -6.0511  -77.7566 C   0  0  1  0  0  0  0  0  0  0  0  0
  -10.7088   -6.3886  -78.4899 C   0  0  2  0  0  0  0  0  0  0  0  0
   -9.5547   -5.6154  -79.0785 C   0  0  0  0  0  0  0  0  0  0  0  0
   -8.4819   -5.3264  -78.0231 C   0  0  0  0  0  0  0  0  0  0  0  0
   -8.5621   -6.2991  -76.9885 O   0  0  0  0  0  0  0  0  0  0  0  0
  1 11  1  0  0  0  0
  3 13  1  6  0  0  0
  3 17  2  0  0  0  0
  3 20  1  0  0  0  0
  3 26  1  0  0  0  0
  4 14  1  1  0  0  0
  4 18  1  0  0  0  0
  4 21  2  0  0  0  0
  4 20  1  0  0  0  0
  5 19  1  0  0  0  0
  5  7  1  0  0  0  0
  6  7  2  0  0  0  0
  6 12  1  0  0  0  0
  7  8  1  0  0  0  0
  8  9  1  0  0  0  0
  8 10  2  0  0  0  0
 10 11  1  0  0  0  0
 11 12  2  0  0  0  0
 15 23  1  0  0  0  0
 15 16  1  0  0  0  0
 16 19  1  0  0  0  0
 19 22  1  0  0  0  0
 22  2  1  6  0  0  0
 22 23  1  0  0  0  0
 23 24  1  6  0  0  0
 24 25  1  0  0  0  0
 25 26  1  0  0  0  0
M  CHG  2  13  -1  18  -1
M  END
>  <CHROM.1>
156.38728633,10.45169879,-103.00106666,71.10972163,-98.24345061,24.68803817
91.50950596,-21.96553070,-10.96376383,-8.23693128,-76.68313638,-2.75509233
-0.18331569,-0.70282611

>  <Name>
ligand

>  <RI>
0

>  <Rbt.Current_Directory>
/home/itssahil/PROJECTS/Mol_Feturizer/New_Systems/rnas/2CKY

>  <Rbt.Executable>
rbdock ($Id: //depot/dev/client3/rdock/2013.1/src/exe/rbdock.cxx#4 $)

>  <Rbt.Library>
libRbt.so (2013.1, Build901 2013/11/27)

>  <Rbt.Parameter_File>
/export/apps/rDock/src/rDock_2013.1_src/data/scripts/dock_solv.prm

>  <Rbt.Receptor>
prm/blind_docking_80.prm

>  <SCORE>
-6.23955

>  <SCORE.INTER>
-7.04076

>  <SCORE.INTER.CONST>
1

>  <SCORE.INTER.POLAR>
0

>  <SCORE.INTER.ROT>
8

>  <SCORE.INTER.SOLV>
14.2514

>  <SCORE.INTER.VDW>
-18.3777

>  <SCORE.INTER.norm>
-0.270799

>  <SCORE.INTRA>
-0.600696

>  <SCORE.INTRA.DIHEDRAL>
-1.38391

>  <SCORE.INTRA.DIHEDRAL.0>
16.4846

>  <SCORE.INTRA.POLAR>
0

>  <SCORE.INTRA.POLAR.0>
0

>  <SCORE.INTRA.REPUL>
0

>  <SCORE.INTRA.REPUL.0>
0

>  <SCORE.INTRA.SOLV>
6.9219

>  <SCORE.INTRA.SOLV.lig_0>
-82.6983

>  <SCORE.INTRA.VDW>
-3.36969

>  <SCORE.INTRA.VDW.0>
-2.11466

>  <SCORE.INTRA.norm>
-0.0231037

>  <SCORE.RESTR>
1.40191

>  <SCORE.RESTR.CAVITY>
1.40191

>  <SCORE.RESTR.norm>
0.0539198

>  <SCORE.SYSTEM>
0

>  <SCORE.SYSTEM.CONST>
0

>  <SCORE.SYSTEM.DIHEDRAL>
0

>  <SCORE.SYSTEM.SOLV>
0

>  <SCORE.SYSTEM.norm>
0

>  <SCORE.heavy>
26

>  <SCORE.norm>
-0.239983

>  <RMSD>
23.754

$$$$
ligand
 OpenBabel11021811423D
libRbt.so/2013.1/901 2013/11/27
 26 27  0  0  0  0  0  0  0  0999 V2000
  -14.4092  -12.7246  -74.6051 C   0  0  0  0  0  0  0  0  0  0  0  0
  -12.0870   -4.7063  -77.3586 C   0  0  0  0  0  0  0  0  0  0  0  0
   -7.8679   -7.1568  -76.3388 P   0  0  2  0  0  0  0  0  0  0  0  0
   -9.4560   -8.9702  -74.9748 P   0  0  2  0  0  0  0  0  0  0  0  0
  -13.4878   -7.4276  -76.5946 C   0  0  0  0  0  0  0  0  0  0  0  0
  -13.2156   -9.2200  -74.8995 C   0  0  0  0  0  0  0  0  0  0  0  0
  -13.7375   -8.8340  -76.1273 C   0  0  0  0  0  0  0  0  0  0  0  0
  -14.5140   -9.7467  -76.8472 C   0  0  0  0  0  0  0  0  0  0  0  0
  -15.0763   -9.4853  -78.0276 N   0  0  0  0  0  0  0  0  0  0  0  0
  -14.7201  -10.9992  -76.3293 N   0  0  0  0  0  0  0  0  0  0  0  0
  -14.1772  -11.3568  -75.1274 C   0  0  0  0  0  0  0  0  0  0  0  0
  -13.4309  -10.4863  -74.3993 N   0  0  0  0  0  0  0  0  0  0  0  0
   -7.7695   -8.2352  -77.3996 O   0  5  0  0  0  0  0  0  0  0  0  0
   -8.1595   -9.4926  -74.3980 O   0  0  0  0  0  0  0  0  0  0  0  0
  -10.2665   -7.8711  -78.7843 S   0  0  0  0  0  0  0  0  0  0  0  0
  -11.5754   -8.3026  -77.9143 C   0  0  0  0  0  0  0  0  0  0  0  0
   -6.5169   -7.1293  -75.6289 O   0  0  0  0  0  0  0  0  0  0  0  0
   -9.8885   -9.7608  -76.1928 O   0  5  0  0  0  0  0  0  0  0  0  0
  -12.2787   -7.2487  -77.3623 N   0  0  0  0  0  0  0  0  0  0  0  0
   -9.1804   -7.4751  -75.4544 O   0  0  0  0  0  0  0  0  0  0  0  0
  -10.5157   -9.0332  -73.8937 O   0  0  0  0  0  0  0  0  0  0  0  0
  -11.6612   -6.0746  -77.7167 C   0  0  1  0  0  0  0  0  0  0  0  0
  -10.5324   -6.3196  -78.5143 C   0  0  2  0  0  0  0  0  0  0  0  0
   -9.5001   -5.4549  -79.1948 C   0  0  0  0  0  0  0  0  0  0  0  0
   -8.2149   -5.3645  -78.3652 C   0  0  0  0  0  0  0  0  0  0  0  0
   -8.4793   -5.7934  -77.0351 O   0  0  0  0  0  0  0  0  0  0  0  0
  1 11  1  0  0  0  0
  3 13  1  6  0  0  0
  3 17  2  0  0  0  0
  3 20  1  0  0  0  0
  3 26  1  0  0  0  0
  4 14  1  1  0  0  0
  4 18  1  0  0  0  0
  4 21  2  0  0  0  0
  4 20  1  0  0  0  0
  5 19  1  0  0  0  0
  5  7  1  0  0  0  0
  6  7  2  0  0  0  0
  6 12  1  0  0  0  0
  7  8  1  0  0  0  0
  8  9  1  0  0  0  0
  8 10  2  0  0  0  0
 10 11  1  0  0  0  0
 11 12  2  0  0  0  0
 15 23  1  0  0  0  0
 15 16  1  0  0  0  0
 16 19  1  0  0  0  0
 19 22  1  0  0  0  0
 22  2  1  6  0  0  0
 22 23  1  0  0  0  0
 23 24  1  6  0  0  0
 24 25  1  0  0  0  0
 25 26  1  0  0  0  0
M  CHG  2  13  -1  18  -1
M  END
>  <CHROM.1>
44.82590357,15.42734779,89.37125062,47.58593771,-81.76566316,-16.44437503
112.85648347,-35.13740596,-10.80982948,-8.21216938,-76.51000983,-2.59234722
-0.27031471,-0.75706438

>  <Name>
ligand

>  <RI>
0

>  <Rbt.Current_Directory>
/home/itssahil/PROJECTS/Mol_Feturizer/New_Systems/rnas/2CKY

>  <Rbt.Executable>
rbdock ($Id: //depot/dev/client3/rdock/2013.1/src/exe/rbdock.cxx#4 $)

>  <Rbt.Library>
libRbt.so (2013.1, Build901 2013/11/27)

>  <Rbt.Parameter_File>
/export/apps/rDock/src/rDock_2013.1_src/data/scripts/dock_solv.prm

>  <Rbt.Receptor>
prm/blind_docking_80.prm

>  <SCORE>
-6.05401

>  <SCORE.INTER>
-6.93763

>  <SCORE.INTER.CONST>
1

>  <SCORE.INTER.POLAR>
0

>  <SCORE.INTER.ROT>
8

>  <SCORE.INTER.SOLV>
14.3184

>  <SCORE.INTER.VDW>
-18.3312

>  <SCORE.INTER.norm>
-0.266832

>  <SCORE.INTRA>
-0.576718

>  <SCORE.INTRA.DIHEDRAL>
2.01709

>  <SCORE.INTRA.DIHEDRAL.0>
16.4846

>  <SCORE.INTRA.POLAR>
0

>  <SCORE.INTRA.POLAR.0>
0

>  <SCORE.INTRA.REPUL>
0

>  <SCORE.INTRA.REPUL.0>
0

>  <SCORE.INTRA.SOLV>
4.66081

>  <SCORE.INTRA.SOLV.lig_0>
-82.6983

>  <SCORE.INTRA.VDW>
-3.91567

>  <SCORE.INTRA.VDW.0>
-2.11466

>  <SCORE.INTRA.norm>
-0.0221814

>  <SCORE.RESTR>
1.46033

>  <SCORE.RESTR.CAVITY>
1.46033

>  <SCORE.RESTR.norm>
0.0561667

>  <SCORE.SYSTEM>
0

>  <SCORE.SYSTEM.CONST>
0

>  <SCORE.SYSTEM.DIHEDRAL>
0

>  <SCORE.SYSTEM.SOLV>
0

>  <SCORE.SYSTEM.norm>
0

>  <SCORE.heavy>
26

>  <SCORE.norm>
-0.232847

>  <RMSD>
23.770

$$$$
ligand
 OpenBabel11021811423D
libRbt.so/2013.1/901 2013/11/27
 26 27  0  0  0  0  0  0  0  0999 V2000
  -12.0272  -13.6264  -73.6408 C   0  0  0  0  0  0  0  0  0  0  0  0
  -14.3914   -7.3132  -75.9513 C   0  0  0  0  0  0  0  0  0  0  0  0
  -10.1009   -6.6936  -77.5379 P   0  0  2  0  0  0  0  0  0  0  0  0
   -8.1419   -8.1392  -76.2176 P   0  0  2  0  0  0  0  0  0  0  0  0
  -15.5510  -10.1811  -76.5697 C   0  0  0  0  0  0  0  0  0  0  0  0
  -13.4415  -10.6463  -75.3473 C   0  0  0  0  0  0  0  0  0  0  0  0
  -14.6516  -11.1296  -75.8279 C   0  0  0  0  0  0  0  0  0  0  0  0
  -15.0046  -12.4546  -75.5560 C   0  0  0  0  0  0  0  0  0  0  0  0
  -16.1431  -13.0237  -75.9533 N   0  0  0  0  0  0  0  0  0  0  0  0
  -14.1382  -13.2409  -74.8414 N   0  0  0  0  0  0  0  0  0  0  0  0
  -12.9454  -12.7428  -74.3983 C   0  0  0  0  0  0  0  0  0  0  0  0
  -12.5826  -11.4556  -74.6350 N   0  0  0  0  0  0  0  0  0  0  0  0
  -10.2450   -7.4984  -78.8144 O   0  5  0  0  0  0  0  0  0  0  0  0
   -7.3588   -6.8635  -76.0035 O   0  0  0  0  0  0  0  0  0  0  0  0
  -13.9342   -8.4280  -79.6811 S   0  0  0  0  0  0  0  0  0  0  0  0
  -14.6770   -9.5942  -78.8184 C   0  0  0  0  0  0  0  0  0  0  0  0
   -9.1504   -5.5438  -77.8611 O   0  0  0  0  0  0  0  0  0  0  0  0
   -7.7365   -8.8396  -77.4985 O   0  5  0  0  0  0  0  0  0  0  0  0
  -14.8741   -9.2928  -77.4840 N   0  0  0  0  0  0  0  0  0  0  0  0
   -9.6731   -7.7228  -76.3701 O   0  0  0  0  0  0  0  0  0  0  0  0
   -7.9155   -9.0413  -75.0214 O   0  0  0  0  0  0  0  0  0  0  0  0
  -14.3749   -8.0373  -77.2386 C   0  0  1  0  0  0  0  0  0  0  0  0
  -13.8346   -7.4730  -78.4048 C   0  0  2  0  0  0  0  0  0  0  0  0
  -13.1807   -6.1573  -78.7481 C   0  0  0  0  0  0  0  0  0  0  0  0
  -12.5560   -5.5060  -77.5096 C   0  0  0  0  0  0  0  0  0  0  0  0
  -11.6062   -6.3955  -76.9356 O   0  0  0  0  0  0  0  0  0  0  0  0
  1 11  1  0  0  0  0
  3 13  1  6  0  0  0
  3 17  2  0  0  0  0
  3 20  1  0  0  0  0
  3 26  1  0  0  0  0
  4 14  1  1  0  0  0
  4 18  1  0  0  0  0
  4 21  2  0  0  0  0
  4 20  1  0  0  0  0
  5 19  1  0  0  0  0
  5  7  1  0  0  0  0
  6  7  2  0  0  0  0
  6 12  1  0  0  0  0
  7  8  1  0  0  0  0
  8  9  1  0  0  0  0
  8 10  2  0  0  0  0
 10 11  1  0  0  0  0
 11 12  2  0  0  0  0
 15 23  1  0  0  0  0
 15 16  1  0  0  0  0
 16 19  1  0  0  0  0
 19 22  1  0  0  0  0
 22  2  1  6  0  0  0
 22 23  1  0  0  0  0
 23 24  1  6  0  0  0
 24 25  1  0  0  0  0
 25 26  1  0  0  0  0
M  CHG  2  13  -1  18  -1
M  END
>  <CHROM.1>
82.27706717,91.86166763,41.13420125,58.10119495,-156.05324955,57.77102679
75.63645361,-70.91234222,-11.96391044,-8.85943597,-76.80305645,-2.47138748
-0.27768935,-0.60038412

>  <Name>
ligand

>  <RI>
0

>  <Rbt.Current_Directory>
/home/itssahil/PROJECTS/Mol_Feturizer/New_Systems/rnas/2CKY

>  <Rbt.Executable>
rbdock ($Id: //depot/dev/client3/rdock/2013.1/src/exe/rbdock.cxx#4 $)

>  <Rbt.Library>
libRbt.so (2013.1, Build901 2013/11/27)

>  <Rbt.Parameter_File>
/export/apps/rDock/src/rDock_2013.1_src/data/scripts/dock_solv.prm

>  <Rbt.Receptor>
prm/blind_docking_80.prm

>  <SCORE>
-11.9041

>  <SCORE.INTER>
-11.6035

>  <SCORE.INTER.CONST>
1

>  <SCORE.INTER.POLAR>
0

>  <SCORE.INTER.ROT>
8

>  <SCORE.INTER.SOLV>
14.2525

>  <SCORE.INTER.VDW>
-21.4198

>  <SCORE.INTER.norm>
-0.446288

>  <SCORE.INTRA>
-4.68276

>  <SCORE.INTRA.DIHEDRAL>
-9.72068

>  <SCORE.INTRA.DIHEDRAL.0>
16.4846

>  <SCORE.INTRA.POLAR>
0

>  <SCORE.INTRA.POLAR.0>
0

>  <SCORE.INTRA.REPUL>
0

>  <SCORE.INTRA.REPUL.0>
0

>  <SCORE.INTRA.SOLV>
1.53162

>  <SCORE.INTRA.SOLV.lig_0>
-82.6983

>  <SCORE.INTRA.VDW>
-0.588228

>  <SCORE.INTRA.VDW.0>
-2.11466

>  <SCORE.INTRA.norm>
-0.180106

>  <SCORE.RESTR>
4.38217

>  <SCORE.RESTR.CAVITY>
4.38217

>  <SCORE.RESTR.norm>
0.168545

>  <SCORE.SYSTEM>
0

>  <SCORE.SYSTEM.CONST>
0

>  <SCORE.SYSTEM.DIHEDRAL>
0

>  <SCORE.SYSTEM.SOLV>
0

>  <SCORE.SYSTEM.norm>
0

>  <SCORE.heavy>
26

>  <SCORE.norm>
-0.457849

>  <RMSD>
23.770

$$$$
ligand
 OpenBabel11021811423D
libRbt.so/2013.1/901 2013/11/27
 26 27  0  0  0  0  0  0  0  0999 V2000
  -16.0871  -13.5928  -75.8015 C   0  0  0  0  0  0  0  0  0  0  0  0
  -10.4798   -8.2015  -73.7123 C   0  0  0  0  0  0  0  0  0  0  0  0
   -9.0906   -5.8556  -78.0611 P   0  0  2  0  0  0  0  0  0  0  0  0
  -11.6130   -4.8810  -77.4625 P   0  0  2  0  0  0  0  0  0  0  0  0
  -13.1142   -8.7100  -75.3714 C   0  0  0  0  0  0  0  0  0  0  0  0
  -13.6802  -11.0135  -74.6408 C   0  0  0  0  0  0  0  0  0  0  0  0
  -13.9022   -9.9786  -75.5401 C   0  0  0  0  0  0  0  0  0  0  0  0
  -14.8817  -10.1389  -76.5245 C   0  0  0  0  0  0  0  0  0  0  0  0
  -15.1910   -9.2121  -77.4318 N   0  0  0  0  0  0  0  0  0  0  0  0
  -15.5784  -11.3180  -76.5844 N   0  0  0  0  0  0  0  0  0  0  0  0
  -15.3241  -12.3261  -75.6977 C   0  0  0  0  0  0  0  0  0  0  0  0
  -14.3887  -12.1931  -74.7219 N   0  0  0  0  0  0  0  0  0  0  0  0
   -8.4146   -4.7884  -78.8990 O   0  5  0  0  0  0  0  0  0  0  0  0
  -11.6092   -4.4124  -78.9002 O   0  0  0  0  0  0  0  0  0  0  0  0
   -9.8305   -9.0167  -77.4907 S   0  0  0  0  0  0  0  0  0  0  0  0
  -11.4266   -9.0420  -77.1621 C   0  0  0  0  0  0  0  0  0  0  0  0
   -9.6922   -6.8557  -79.0448 O   0  0  0  0  0  0  0  0  0  0  0  0
  -12.1891   -3.8338  -76.5313 O   0  5  0  0  0  0  0  0  0  0  0  0
  -11.7526   -8.7736  -75.8461 N   0  0  0  0  0  0  0  0  0  0  0  0
  -10.0909   -5.1013  -77.0431 O   0  0  0  0  0  0  0  0  0  0  0  0
  -12.4148   -6.1643  -77.3839 O   0  0  0  0  0  0  0  0  0  0  0  0
  -10.5949   -8.5427  -75.1447 C   0  0  1  0  0  0  0  0  0  0  0  0
   -9.4706   -8.6511  -75.9783 C   0  0  2  0  0  0  0  0  0  0  0  0
   -7.9824   -8.4940  -75.7862 C   0  0  0  0  0  0  0  0  0  0  0  0
   -7.3701   -7.6106  -76.8785 C   0  0  0  0  0  0  0  0  0  0  0  0
   -8.0342   -6.3531  -76.8974 O   0  0  0  0  0  0  0  0  0  0  0  0
  1 11  1  0  0  0  0
  3 13  1  6  0  0  0
  3 17  2  0  0  0  0
  3 20  1  0  0  0  0
  3 26  1  0  0  0  0
  4 14  1  6  0  0  0
  4 18  1  0  0  0  0
  4 21  2  0  0  0  0
  4 20  1  0  0  0  0
  5 19  1  0  0  0  0
  5  7  1  0  0  0  0
  6  7  2  0  0  0  0
  6 12  1  0  0  0  0
  7  8  1  0  0  0  0
  8  9  1  0  0  0  0
  8 10  2  0  0  0  0
 10 11  1  0  0  0  0
 11 12  2  0  0  0  0
 15 23  1  0  0  0  0
 15 16  1  0  0  0  0
 16 19  1  0  0  0  0
 19 22  1  0  0  0  0
 22  2  1  6  0  0  0
 22 23  1  0  0  0  0
 23 24  1  6  0  0  0
 24 25  1  0  0  0  0
 25 26  1  0  0  0  0
M  CHG  2  13  -1  18  -1
M  END
>  <CHROM.1>
92.61492014,60.39997734,77.77726690,-44.10873540,47.43597941,56.01797931
-107.32125325,-107.96777388,-11.43724903,-7.92766526,-76.75473395,-2.28178223
-0.06786058,-0.38914721

>  <Name>
ligand

>  <RI>
0

>  <Rbt.Current_Directory>
/home/itssahil/PROJECTS/Mol_Feturizer/New_Systems/rnas/2CKY

>  <Rbt.Executable>
rbdock ($Id: //depot/dev/client3/rdock/2013.1/src/exe/rbdock.cxx#4 $)

>  <Rbt.Library>
libRbt.so (2013.1, Build901 2013/11/27)

>  <Rbt.Parameter_File>
/export/apps/rDock/src/rDock_2013.1_src/data/scripts/dock_solv.prm

>  <Rbt.Receptor>
prm/blind_docking_80.prm

>  <SCORE>
-5.42591

>  <SCORE.INTER>
-7.12667

>  <SCORE.INTER.CONST>
1

>  <SCORE.INTER.POLAR>
0

>  <SCORE.INTER.ROT>
8

>  <SCORE.INTER.SOLV>
21.9034

>  <SCORE.INTER.VDW>
-20.9856

>  <SCORE.INTER.norm>
-0.274103

>  <SCORE.INTRA>
0.106034

>  <SCORE.INTRA.DIHEDRAL>
-1.26259

>  <SCORE.INTRA.DIHEDRAL.0>
16.4846

>  <SCORE.INTRA.POLAR>
0

>  <SCORE.INTRA.POLAR.0>
0

>  <SCORE.INTRA.REPUL>
0

>  <SCORE.INTRA.REPUL.0>
0

>  <SCORE.INTRA.SOLV>
3.57838

>  <SCORE.INTRA.SOLV.lig_0>
-82.6983

>  <SCORE.INTRA.VDW>
-1.05186

>  <SCORE.INTRA.VDW.0>
-2.11466

>  <SCORE.INTRA.norm>
0.00407822

>  <SCORE.RESTR>
1.59472

>  <SCORE.RESTR.CAVITY>
1.59472

>  <SCORE.RESTR.norm>
0.0613355

>  <SCORE.SYSTEM>
0

>  <SCORE.SYSTEM.CONST>
0

>  <SCORE.SYSTEM.DIHEDRAL>
0

>  <SCORE.SYSTEM.SOLV>
0

>  <SCORE.SYSTEM.norm>
0

>  <SCORE.heavy>
26

>  <SCORE.norm>
-0.208689

>  <RMSD>
23.793

$$$$
ligand
 OpenBabel11021811423D
libRbt.so/2013.1/901 2013/11/27
 26 27  0  0  0  0  0  0  0  0999 V2000
  -16.2887  -11.5046  -77.0968 C   0  0  0  0  0  0  0  0  0  0  0  0
  -11.4536   -8.4053  -77.1590 C   0  0  0  0  0  0  0  0  0  0  0  0
   -9.4283   -5.8783  -78.2637 P   0  0  2  0  0  0  0  0  0  0  0  0
  -11.7580   -4.5395  -77.5926 P   0  0  2  0  0  0  0  0  0  0  0  0
  -12.2260   -8.7646  -74.1216 C   0  0  0  0  0  0  0  0  0  0  0  0
  -13.4793  -10.8064  -74.7701 C   0  0  0  0  0  0  0  0  0  0  0  0
  -13.2881   -9.4414  -74.9416 C   0  0  0  0  0  0  0  0  0  0  0  0
  -14.1228   -8.7489  -75.8237 C   0  0  0  0  0  0  0  0  0  0  0  0
  -14.0424   -7.4390  -76.0593 N   0  0  0  0  0  0  0  0  0  0  0  0
  -15.0900   -9.4405  -76.5061 N   0  0  0  0  0  0  0  0  0  0  0  0
  -15.2414  -10.7873  -76.3312 C   0  0  0  0  0  0  0  0  0  0  0  0
  -14.4548  -11.4834  -75.4702 N   0  0  0  0  0  0  0  0  0  0  0  0
   -8.8559   -4.7961  -79.1577 O   0  5  0  0  0  0  0  0  0  0  0  0
  -12.5955   -5.6915  -78.1006 O   0  0  0  0  0  0  0  0  0  0  0  0
   -8.3798   -9.0648  -74.8181 S   0  0  0  0  0  0  0  0  0  0  0  0
   -9.7627   -9.0287  -73.9564 C   0  0  0  0  0  0  0  0  0  0  0  0
  -10.0929   -6.8928  -79.1905 O   0  0  0  0  0  0  0  0  0  0  0  0
  -11.4912   -3.5167  -78.6781 O   0  5  0  0  0  0  0  0  0  0  0  0
  -10.9036   -8.7919  -74.6996 N   0  0  0  0  0  0  0  0  0  0  0  0
  -10.3497   -5.1469  -77.1582 O   0  0  0  0  0  0  0  0  0  0  0  0
  -12.4854   -3.9024  -76.4260 O   0  0  0  0  0  0  0  0  0  0  0  0
  -10.5480   -8.6515  -76.0184 C   0  0  1  0  0  0  0  0  0  0  0  0
   -9.1613   -8.7928  -76.1842 C   0  0  2  0  0  0  0  0  0  0  0  0
   -8.2196   -8.7573  -77.3625 C   0  0  0  0  0  0  0  0  0  0  0  0
   -7.3950   -7.4658  -77.3778 C   0  0  0  0  0  0  0  0  0  0  0  0
   -8.2596   -6.3504  -77.2011 O   0  0  0  0  0  0  0  0  0  0  0  0
  1 11  1  0  0  0  0
  3 13  1  6  0  0  0
  3 17  2  0  0  0  0
  3 20  1  0  0  0  0
  3 26  1  0  0  0  0
  4 14  1  6  0  0  0
  4 18  1  0  0  0  0
  4 21  2  0  0  0  0
  4 20  1  0  0  0  0
  5 19  1  0  0  0  0
  5  7  1  0  0  0  0
  6  7  2  0  0  0  0
  6 12  1  0  0  0  0
  7  8  1  0  0  0  0
  8  9  1  0  0  0  0
  8 10  2  0  0  0  0
 10 11  1  0  0  0  0
 11 12  2  0  0  0  0
 15 23  1  0  0  0  0
 15 16  1  0  0  0  0
 16 19  1  0  0  0  0
 19 22  1  0  0  0  0
 22  2  1  6  0  0  0
 22 23  1  0  0  0  0
 23 24  1  6  0  0  0
 24 25  1  0  0  0  0
 25 26  1  0  0  0  0
M  CHG  2  13  -1  18  -1
M  END
>  <CHROM.1>
72.94407632,-138.58256838,87.00964646,61.21186810,-73.61433372,-48.79046296
-65.06924446,-95.52743090,-11.26088903,-7.55537675,-76.68066838,2.28706760
0.07870745,2.63520443

>  <Name>
ligand

>  <RI>
0

>  <Rbt.Current_Directory>
/home/itssahil/PROJECTS/Mol_Feturizer/New_Systems/rnas/2CKY

>  <Rbt.Executable>
rbdock ($Id: //depot/dev/client3/rdock/2013.1/src/exe/rbdock.cxx#4 $)

>  <Rbt.Library>
libRbt.so (2013.1, Build901 2013/11/27)

>  <Rbt.Parameter_File>
/export/apps/rDock/src/rDock_2013.1_src/data/scripts/dock_solv.prm

>  <Rbt.Receptor>
prm/blind_docking_80.prm

>  <SCORE>
-9.65192

>  <SCORE.INTER>
-9.6838

>  <SCORE.INTER.CONST>
1

>  <SCORE.INTER.POLAR>
0

>  <SCORE.INTER.ROT>
8

>  <SCORE.INTER.SOLV>
23.1124

>  <SCORE.INTER.VDW>
-23.0933

>  <SCORE.INTER.norm>
-0.372454

>  <SCORE.INTRA>
-1.62287

>  <SCORE.INTRA.DIHEDRAL>
-9.13138

>  <SCORE.INTRA.DIHEDRAL.0>
16.4846

>  <SCORE.INTRA.POLAR>
0

>  <SCORE.INTRA.POLAR.0>
0

>  <SCORE.INTRA.REPUL>
0

>  <SCORE.INTRA.REPUL.0>
0

>  <SCORE.INTRA.SOLV>
8.47319

>  <SCORE.INTRA.SOLV.lig_0>
-82.6983

>  <SCORE.INTRA.VDW>
-1.29377

>  <SCORE.INTRA.VDW.0>
-2.11466

>  <SCORE.INTRA.norm>
-0.0624179

>  <SCORE.RESTR>
1.65475

>  <SCORE.RESTR.CAVITY>
1.65475

>  <SCORE.RESTR.norm>
0.0636441

>  <SCORE.SYSTEM>
0

>  <SCORE.SYSTEM.CONST>
0

>  <SCORE.SYSTEM.DIHEDRAL>
0

>  <SCORE.SYSTEM.SOLV>
0

>  <SCORE.SYSTEM.norm>
0

>  <SCORE.heavy>
26

>  <SCORE.norm>
-0.371228

>  <RMSD>
23.794

$$$$
ligand
 OpenBabel11021811423D
libRbt.so/2013.1/901 2013/11/27
 26 27  0  0  0  0  0  0  0  0999 V2000
  -14.6319  -14.3280  -73.5390 C   0  0  0  0  0  0  0  0  0  0  0  0
  -13.3653   -9.1411  -79.4199 C   0  0  0  0  0  0  0  0  0  0  0  0
   -9.8195   -8.1524  -75.6896 P   0  0  2  0  0  0  0  0  0  0  0  0
   -7.9771   -8.0772  -77.7562 P   0  0  2  0  0  0  0  0  0  0  0  0
  -15.5993  -10.3417  -77.5439 C   0  0  0  0  0  0  0  0  0  0  0  0
  -16.1494  -12.4552  -76.3645 C   0  0  0  0  0  0  0  0  0  0  0  0
  -15.3180  -11.3469  -76.4626 C   0  0  0  0  0  0  0  0  0  0  0  0
  -14.2291  -11.2414  -75.5924 C   0  0  0  0  0  0  0  0  0  0  0  0
  -13.3576  -10.2323  -75.6013 N   0  0  0  0  0  0  0  0  0  0  0  0
  -14.0268  -12.2233  -74.6574 N   0  0  0  0  0  0  0  0  0  0  0  0
  -14.8734  -13.2925  -74.5720 C   0  0  0  0  0  0  0  0  0  0  0  0
  -15.9308  -13.4287  -75.4135 N   0  0  0  0  0  0  0  0  0  0  0  0
   -9.0983   -6.9288  -75.1598 O   0  5  0  0  0  0  0  0  0  0  0  0
   -7.0675   -7.1462  -76.9864 O   0  0  0  0  0  0  0  0  0  0  0  0
  -14.2176   -6.8777  -76.3354 S   0  0  0  0  0  0  0  0  0  0  0  0
  -15.1374   -8.2231  -76.3343 C   0  0  0  0  0  0  0  0  0  0  0  0
  -10.3333   -8.9095  -74.4679 O   0  0  0  0  0  0  0  0  0  0  0  0
   -8.9830   -7.3146  -78.5943 O   0  5  0  0  0  0  0  0  0  0  0  0
  -14.9124   -9.0811  -77.3941 N   0  0  0  0  0  0  0  0  0  0  0  0
   -8.7988   -8.9173  -76.6791 O   0  0  0  0  0  0  0  0  0  0  0  0
   -7.1164   -8.9648  -78.6319 O   0  0  0  0  0  0  0  0  0  0  0  0
  -13.9292   -8.5475  -78.1905 C   0  0  1  0  0  0  0  0  0  0  0  0
  -13.4758   -7.3217  -77.6784 C   0  0  2  0  0  0  0  0  0  0  0  0
  -12.4341   -6.3127  -78.0945 C   0  0  0  0  0  0  0  0  0  0  0  0
  -11.2327   -6.3280  -77.1434 C   0  0  0  0  0  0  0  0  0  0  0  0
  -10.8559   -7.6737  -76.8788 O   0  0  0  0  0  0  0  0  0  0  0  0
  1 11  1  0  0  0  0
  3 13  1  1  0  0  0
  3 17  2  0  0  0  0
  3 20  1  0  0  0  0
  3 26  1  0  0  0  0
  4 14  1  1  0  0  0
  4 18  1  0  0  0  0
  4 21  2  0  0  0  0
  4 20  1  0  0  0  0
  5 19  1  0  0  0  0
  5  7  1  0  0  0  0
  6  7  2  0  0  0  0
  6 12  1  0  0  0  0
  7  8  1  0  0  0  0
  8  9  1  0  0  0  0
  8 10  2  0  0  0  0
 10 11  1  0  0  0  0
 11 12  2  0  0  0  0
 15 23  1  0  0  0  0
 15 16  1  0  0  0  0
 16 19  1  0  0  0  0
 19 22  1  0  0  0  0
 22  2  1  1  0  0  0
 22 23  1  0  0  0  0
 23 24  1  1  0  0  0
 24 25  1  0  0  0  0
 25 26  1  0  0  0  0
M  CHG  2  13  -1  18  -1
M  END
>  <CHROM.1>
-45.88163348,-63.90378607,165.96208268,63.97978415,70.57550352,44.92590262
-167.22381679,-13.25252373,-12.02326451,-9.06573424,-76.59458677,-2.55339878
-0.09223338,-0.49457175

>  <Name>
ligand

>  <RI>
0

>  <Rbt.Current_Directory>
/home/itssahil/PROJECTS/Mol_Feturizer/New_Systems/rnas/2CKY

>  <Rbt.Executable>
rbdock ($Id: //depot/dev/client3/rdock/2013.1/src/exe/rbdock.cxx#4 $)

>  <Rbt.Library>
libRbt.so (2013.1, Build901 2013/11/27)

>  <Rbt.Parameter_File>
/export/apps/rDock/src/rDock_2013.1_src/data/scripts/dock_solv.prm

>  <Rbt.Receptor>
prm/blind_docking_80.prm

>  <SCORE>
-6.46579

>  <SCORE.INTER>
-8.92278

>  <SCORE.INTER.CONST>
1

>  <SCORE.INTER.POLAR>
0

>  <SCORE.INTER.ROT>
8

>  <SCORE.INTER.SOLV>
9.8515

>  <SCORE.INTER.VDW>
-18.1657

>  <SCORE.INTER.norm>
-0.343184

>  <SCORE.INTRA>
-0.889826

>  <SCORE.INTRA.DIHEDRAL>
-7.41042

>  <SCORE.INTRA.DIHEDRAL.0>
16.4846

>  <SCORE.INTRA.POLAR>
0

>  <SCORE.INTRA.POLAR.0>
0

>  <SCORE.INTRA.REPUL>
0

>  <SCORE.INTRA.REPUL.0>
0

>  <SCORE.INTRA.SOLV>
7.72925

>  <SCORE.INTRA.SOLV.lig_0>
-82.6983

>  <SCORE.INTRA.VDW>
-1.04924

>  <SCORE.INTRA.VDW.0>
-2.11466

>  <SCORE.INTRA.norm>
-0.0342241

>  <SCORE.RESTR>
3.34681

>  <SCORE.RESTR.CAVITY>
3.34681

>  <SCORE.RESTR.norm>
0.128724

>  <SCORE.SYSTEM>
0

>  <SCORE.SYSTEM.CONST>
0

>  <SCORE.SYSTEM.DIHEDRAL>
0

>  <SCORE.SYSTEM.SOLV>
0

>  <SCORE.SYSTEM.norm>
0

>  <SCORE.heavy>
26

>  <SCORE.norm>
-0.248684

>  <RMSD>
23.809

$$$$
ligand
 OpenBabel11021811423D
libRbt.so/2013.1/901 2013/11/27
 26 27  0  0  0  0  0  0  0  0999 V2000
  -13.8485  -15.1634  -75.2920 C   0  0  0  0  0  0  0  0  0  0  0  0
  -10.6665   -9.2638  -75.9762 C   0  0  0  0  0  0  0  0  0  0  0  0
   -9.2931   -5.8929  -75.6673 P   0  0  2  0  0  0  0  0  0  0  0  0
   -7.6907   -7.0073  -77.6323 P   0  0  2  0  0  0  0  0  0  0  0  0
  -13.2726   -9.5605  -74.2236 C   0  0  0  0  0  0  0  0  0  0  0  0
  -12.5910  -11.9326  -73.9602 C   0  0  0  0  0  0  0  0  0  0  0  0
  -13.4495  -11.0161  -74.5535 C   0  0  0  0  0  0  0  0  0  0  0  0
  -14.4701  -11.4877  -75.3843 C   0  0  0  0  0  0  0  0  0  0  0  0
  -15.3598  -10.7057  -75.9965 N   0  0  0  0  0  0  0  0  0  0  0  0
  -14.5801  -12.8365  -75.6033 N   0  0  0  0  0  0  0  0  0  0  0  0
  -13.7081  -13.7128  -75.0210 C   0  0  0  0  0  0  0  0  0  0  0  0
  -12.7162  -13.2846  -74.1980 N   0  0  0  0  0  0  0  0  0  0  0  0
   -8.9330   -4.8147  -74.6644 O   0  5  0  0  0  0  0  0  0  0  0  0
   -7.3943   -8.0010  -76.5317 O   0  0  0  0  0  0  0  0  0  0  0  0
  -13.5963   -6.9138  -77.0974 S   0  0  0  0  0  0  0  0  0  0  0  0
  -14.0463   -7.8290  -75.8261 C   0  0  0  0  0  0  0  0  0  0  0  0
   -9.2483   -7.2165  -74.9083 O   0  0  0  0  0  0  0  0  0  0  0  0
   -6.4300   -6.5712  -78.3506 O   0  5  0  0  0  0  0  0  0  0  0  0
  -13.0765   -8.6991  -75.3650 N   0  0  0  0  0  0  0  0  0  0  0  0
   -8.3092   -5.7143  -76.9346 O   0  0  0  0  0  0  0  0  0  0  0  0
   -8.6626   -7.6489  -78.6016 O   0  0  0  0  0  0  0  0  0  0  0  0
  -11.9477   -8.5454  -76.1316 C   0  0  1  0  0  0  0  0  0  0  0  0
  -12.1395   -7.5680  -77.1207 C   0  0  2  0  0  0  0  0  0  0  0  0
  -11.2832   -6.9728  -78.2111 C   0  0  0  0  0  0  0  0  0  0  0  0
  -10.8631   -5.5393  -77.8694 C   0  0  0  0  0  0  0  0  0  0  0  0
  -10.6581   -5.4282  -76.4663 O   0  0  0  0  0  0  0  0  0  0  0  0
  1 11  1  0  0  0  0
  3 13  1  1  0  0  0
  3 17  2  0  0  0  0
  3 20  1  0  0  0  0
  3 26  1  0  0  0  0
  4 14  1  1  0  0  0
  4 18  1  0  0  0  0
  4 21  2  0  0  0  0
  4 20  1  0  0  0  0
  5 19  1  0  0  0  0
  5  7  1  0  0  0  0
  6  7  2  0  0  0  0
  6 12  1  0  0  0  0
  7  8  1  0  0  0  0
  8  9  1  0  0  0  0
  8 10  2  0  0  0  0
 10 11  1  0  0  0  0
 11 12  2  0  0  0  0
 15 23  1  0  0  0  0
 15 16  1  0  0  0  0
 16 19  1  0  0  0  0
 19 22  1  0  0  0  0
 22  2  1  1  0  0  0
 22 23  1  0  0  0  0
 23 24  1  1  0  0  0
 24 25  1  0  0  0  0
 25 26  1  0  0  0  0
M  CHG  2  13  -1  18  -1
M  END
>  <CHROM.1>
139.09575359,107.19866237,124.16074528,-36.88155796,71.87563588,34.82921935
81.05254275,136.22192827,-11.16857657,-8.43483677,-76.19188397,-2.28088174
0.09936602,-0.21507982

>  <Name>
ligand

>  <RI>
0

>  <Rbt.Current_Directory>
/home/itssahil/PROJECTS/Mol_Feturizer/New_Systems/rnas/2CKY

>  <Rbt.Executable>
rbdock ($Id: //depot/dev/client3/rdock/2013.1/src/exe/rbdock.cxx#4 $)

>  <Rbt.Library>
libRbt.so (2013.1, Build901 2013/11/27)

>  <Rbt.Parameter_File>
/export/apps/rDock/src/rDock_2013.1_src/data/scripts/dock_solv.prm

>  <Rbt.Receptor>
prm/blind_docking_80.prm

>  <SCORE>
-4.47066

>  <SCORE.INTER>
-8.36909

>  <SCORE.INTER.CONST>
1

>  <SCORE.INTER.POLAR>
0

>  <SCORE.INTER.ROT>
8

>  <SCORE.INTER.SOLV>
15.2954

>  <SCORE.INTER.VDW>
-19.6112

>  <SCORE.INTER.norm>
-0.321888

>  <SCORE.INTRA>
1.6379

>  <SCORE.INTRA.DIHEDRAL>
-2.83298

>  <SCORE.INTRA.DIHEDRAL.0>
16.4846

>  <SCORE.INTRA.POLAR>
0

>  <SCORE.INTRA.POLAR.0>
0

>  <SCORE.INTRA.REPUL>
0

>  <SCORE.INTRA.REPUL.0>
0

>  <SCORE.INTRA.SOLV>
6.08423

>  <SCORE.INTRA.SOLV.lig_0>
-82.6983

>  <SCORE.INTRA.VDW>
0.0122725

>  <SCORE.INTRA.VDW.0>
-2.11466

>  <SCORE.INTRA.norm>
0.0629961

>  <SCORE.RESTR>
2.26054

>  <SCORE.RESTR.CAVITY>
2.26054

>  <SCORE.RESTR.norm>
0.0869437

>  <SCORE.SYSTEM>
0

>  <SCORE.SYSTEM.CONST>
0

>  <SCORE.SYSTEM.DIHEDRAL>
0

>  <SCORE.SYSTEM.SOLV>
0

>  <SCORE.SYSTEM.norm>
0

>  <SCORE.heavy>
26

>  <SCORE.norm>
-0.171948

>  <RMSD>
23.820

$$$$
ligand
 OpenBabel11021811423D
libRbt.so/2013.1/901 2013/11/27
 26 27  0  0  0  0  0  0  0  0999 V2000
  -15.9866  -13.8838  -75.3533 C   0  0  0  0  0  0  0  0  0  0  0  0
  -10.5152   -8.9152  -77.3800 C   0  0  0  0  0  0  0  0  0  0  0  0
   -8.4011   -6.3366  -78.1347 P   0  0  2  0  0  0  0  0  0  0  0  0
  -10.9247   -5.3806  -77.5119 P   0  0  2  0  0  0  0  0  0  0  0  0
  -13.4171   -8.8208  -76.1467 C   0  0  0  0  0  0  0  0  0  0  0  0
  -13.6028  -11.0499  -75.0709 C   0  0  0  0  0  0  0  0  0  0  0  0
  -14.1129  -10.1439  -75.9918 C   0  0  0  0  0  0  0  0  0  0  0  0
  -15.2763  -10.4765  -76.6919 C   0  0  0  0  0  0  0  0  0  0  0  0
  -15.8639   -9.6838  -77.5886 N   0  0  0  0  0  0  0  0  0  0  0  0
  -15.8661  -11.6927  -76.4629 N   0  0  0  0  0  0  0  0  0  0  0  0
  -15.3298  -12.5718  -75.5647 C   0  0  0  0  0  0  0  0  0  0  0  0
  -14.2089  -12.2698  -74.8597 N   0  0  0  0  0  0  0  0  0  0  0  0
   -7.9365   -4.9047  -77.9566 O   0  5  0  0  0  0  0  0  0  0  0  0
  -10.2234   -5.2258  -76.1812 O   0  0  0  0  0  0  0  0  0  0  0  0
  -10.5588   -8.5202  -73.4806 S   0  0  0  0  0  0  0  0  0  0  0  0
  -12.0769   -8.5796  -74.0705 C   0  0  0  0  0  0  0  0  0  0  0  0
   -7.4963   -6.9515  -79.1992 O   0  0  0  0  0  0  0  0  0  0  0  0
  -12.2502   -6.1005  -77.3685 O   0  5  0  0  0  0  0  0  0  0  0  0
  -12.1613   -8.7096  -75.4439 N   0  0  0  0  0  0  0  0  0  0  0  0
   -9.9883   -6.2911  -78.4259 O   0  0  0  0  0  0  0  0  0  0  0  0
  -11.1279   -4.0010  -78.1045 O   0  0  0  0  0  0  0  0  0  0  0  0
  -10.8897   -8.7619  -75.9595 C   0  0  1  0  0  0  0  0  0  0  0  0
   -9.9286   -8.6688  -74.9406 C   0  0  2  0  0  0  0  0  0  0  0  0
   -8.4206   -8.6846  -74.8933 C   0  0  0  0  0  0  0  0  0  0  0  0
   -7.8169   -8.1747  -76.2062 C   0  0  0  0  0  0  0  0  0  0  0  0
   -8.5383   -7.0304  -76.6456 O   0  0  0  0  0  0  0  0  0  0  0  0
  1 11  1  0  0  0  0
  3 13  1  1  0  0  0
  3 17  2  0  0  0  0
  3 20  1  0  0  0  0
  3 26  1  0  0  0  0
  4 14  1  1  0  0  0
  4 18  1  0  0  0  0
  4 21  2  0  0  0  0
  4 20  1  0  0  0  0
  5 19  1  0  0  0  0
  5  7  1  0  0  0  0
  6  7  2  0  0  0  0
  6 12  1  0  0  0  0
  7  8  1  0  0  0  0
  8  9  1  0  0  0  0
  8 10  2  0  0  0  0
 10 11  1  0  0  0  0
 11 12  2  0  0  0  0
 15 23  1  0  0  0  0
 15 16  1  0  0  0  0
 16 19  1  0  0  0  0
 19 22  1  0  0  0  0
 22  2  1  1  0  0  0
 22 23  1  0  0  0  0
 23 24  1  1  0  0  0
 24 25  1  0  0  0  0
 25 26  1  0  0  0  0
M  CHG  2  13  -1  18  -1
M  END
>  <CHROM.1>
-46.61069133,-73.19307945,8.51097909,-25.24937276,-153.31655690,42.67690422
-168.33766784,-119.82775953,-11.33716047,-8.18680898,-76.43788261,-2.42301394
-0.35370219,-0.71266726

>  <Name>
ligand

>  <RI>
0

>  <Rbt.Current_Directory>
/home/itssahil/PROJECTS/Mol_Feturizer/New_Systems/rnas/2CKY

>  <Rbt.Executable>
rbdock ($Id: //depot/dev/client3/rdock/2013.1/src/exe/rbdock.cxx#4 $)

>  <Rbt.Library>
libRbt.so (2013.1, Build901 2013/11/27)

>  <Rbt.Parameter_File>
/export/apps/rDock/src/rDock_2013.1_src/data/scripts/dock_solv.prm

>  <Rbt.Receptor>
prm/blind_docking_80.prm

>  <SCORE>
-6.33789

>  <SCORE.INTER>
-6.37957

>  <SCORE.INTER.CONST>
1

>  <SCORE.INTER.POLAR>
0

>  <SCORE.INTER.ROT>
8

>  <SCORE.INTER.SOLV>
17.581

>  <SCORE.INTER.VDW>
-19.0467

>  <SCORE.INTER.norm>
-0.245368

>  <SCORE.INTRA>
-1.63184

>  <SCORE.INTRA.DIHEDRAL>
-5.98628

>  <SCORE.INTRA.DIHEDRAL.0>
16.4846

>  <SCORE.INTRA.POLAR>
0

>  <SCORE.INTRA.POLAR.0>
0

>  <SCORE.INTRA.REPUL>
0

>  <SCORE.INTRA.REPUL.0>
0

>  <SCORE.INTRA.SOLV>
2.56746

>  <SCORE.INTRA.SOLV.lig_0>
-82.6983

>  <SCORE.INTRA.VDW>
0.0775671

>  <SCORE.INTRA.VDW.0>
-2.11466

>  <SCORE.INTRA.norm>
-0.062763

>  <SCORE.RESTR>
1.67352

>  <SCORE.RESTR.CAVITY>
1.67352

>  <SCORE.RESTR.norm>
0.0643661

>  <SCORE.SYSTEM>
0

>  <SCORE.SYSTEM.CONST>
0

>  <SCORE.SYSTEM.DIHEDRAL>
0

>  <SCORE.SYSTEM.SOLV>
0

>  <SCORE.SYSTEM.norm>
0

>  <SCORE.heavy>
26

>  <SCORE.norm>
-0.243765

>  <RMSD>
23.836

$$$$
ligand
 OpenBabel11021811423D
libRbt.so/2013.1/901 2013/11/27
 26 27  0  0  0  0  0  0  0  0999 V2000
  -14.2475  -12.6497  -74.2702 C   0  0  0  0  0  0  0  0  0  0  0  0
  -12.1764   -4.7619  -77.3532 C   0  0  0  0  0  0  0  0  0  0  0  0
   -7.9387   -7.3639  -76.2570 P   0  0  2  0  0  0  0  0  0  0  0  0
   -9.6843   -8.9490  -74.8042 P   0  0  2  0  0  0  0  0  0  0  0  0
  -13.6080   -7.4952  -76.6965 C   0  0  0  0  0  0  0  0  0  0  0  0
  -13.0152   -9.2276  -75.0209 C   0  0  0  0  0  0  0  0  0  0  0  0
  -13.7971   -8.8661  -76.1103 C   0  0  0  0  0  0  0  0  0  0  0  0
  -14.7590   -9.7660  -76.5784 C   0  0  0  0  0  0  0  0  0  0  0  0
  -15.5742   -9.5246  -77.6056 N   0  0  0  0  0  0  0  0  0  0  0  0
  -14.8875  -10.9834  -75.9614 N   0  0  0  0  0  0  0  0  0  0  0  0
  -14.0901  -11.3188  -74.9036 C   0  0  0  0  0  0  0  0  0  0  0  0
  -13.1573  -10.4591  -74.4182 N   0  0  0  0  0  0  0  0  0  0  0  0
   -7.8325   -8.4579  -77.3010 O   0  5  0  0  0  0  0  0  0  0  0  0
  -10.4491   -9.7781  -75.8113 O   0  0  0  0  0  0  0  0  0  0  0  0
  -10.2882   -7.9038  -78.7410 S   0  0  0  0  0  0  0  0  0  0  0  0
  -11.6354   -8.3491  -77.9393 C   0  0  0  0  0  0  0  0  0  0  0  0
   -6.6667   -7.4478  -75.4174 O   0  0  0  0  0  0  0  0  0  0  0  0
  -10.5178   -8.6474  -73.5754 O   0  5  0  0  0  0  0  0  0  0  0  0
  -12.3648   -7.3041  -77.4045 N   0  0  0  0  0  0  0  0  0  0  0  0
   -9.3546   -7.5561  -75.5059 O   0  0  0  0  0  0  0  0  0  0  0  0
   -8.4272   -9.7047  -74.4242 O   0  0  0  0  0  0  0  0  0  0  0  0
  -11.7329   -6.1244  -77.7120 C   0  0  1  0  0  0  0  0  0  0  0  0
  -10.5681   -6.3568  -78.4601 C   0  0  2  0  0  0  0  0  0  0  0  0
   -9.5064   -5.4812  -79.0787 C   0  0  0  0  0  0  0  0  0  0  0  0
   -8.1508   -5.6803  -78.3923 C   0  0  0  0  0  0  0  0  0  0  0  0
   -8.3556   -5.9594  -77.0128 O   0  0  0  0  0  0  0  0  0  0  0  0
  1 11  1  0  0  0  0
  3 13  1  6  0  0  0
  3 17  2  0  0  0  0
  3 20  1  0  0  0  0
  3 26  1  0  0  0  0
  4 14  1  6  0  0  0
  4 18  1  0  0  0  0
  4 21  2  0  0  0  0
  4 20  1  0  0  0  0
  5 19  1  0  0  0  0
  5  7  1  0  0  0  0
  6  7  2  0  0  0  0
  6 12  1  0  0  0  0
  7  8  1  0  0  0  0
  8  9  1  0  0  0  0
  8 10  2  0  0  0  0
 10 11  1  0  0  0  0
 11 12  2  0  0  0  0
 15 23  1  0  0  0  0
 15 16  1  0  0  0  0
 16 19  1  0  0  0  0
 19 22  1  0  0  0  0
 22  2  1  6  0  0  0
 22 23  1  0  0  0  0
 23 24  1  6  0  0  0
 24 25  1  0  0  0  0
 25 26  1  0  0  0  0
M  CHG  2  13  -1  18  -1
M  END
>  <CHROM.1>
56.61776668,22.89176461,70.69137078,-93.88506178,-67.23908325,-33.36872742
116.84921007,-22.09307172,-10.89625779,-8.27183291,-76.40316480,-2.59442667
-0.25004902,-0.78483336

>  <Name>
ligand

>  <RI>
0

>  <Rbt.Current_Directory>
/home/itssahil/PROJECTS/Mol_Feturizer/New_Systems/rnas/2CKY

>  <Rbt.Executable>
rbdock ($Id: //depot/dev/client3/rdock/2013.1/src/exe/rbdock.cxx#4 $)

>  <Rbt.Library>
libRbt.so (2013.1, Build901 2013/11/27)

>  <Rbt.Parameter_File>
/export/apps/rDock/src/rDock_2013.1_src/data/scripts/dock_solv.prm

>  <Rbt.Receptor>
prm/blind_docking_80.prm

>  <SCORE>
-7.30337

>  <SCORE.INTER>
-7.12697

>  <SCORE.INTER.CONST>
1

>  <SCORE.INTER.POLAR>
0

>  <SCORE.INTER.ROT>
8

>  <SCORE.INTER.SOLV>
14.5567

>  <SCORE.INTER.VDW>
-18.5369

>  <SCORE.INTER.norm>
-0.274114

>  <SCORE.INTRA>
-1.50183

>  <SCORE.INTRA.DIHEDRAL>
1.52963

>  <SCORE.INTRA.DIHEDRAL.0>
16.4846

>  <SCORE.INTRA.POLAR>
0

>  <SCORE.INTRA.POLAR.0>
0

>  <SCORE.INTRA.REPUL>
0

>  <SCORE.INTRA.REPUL.0>
0

>  <SCORE.INTRA.SOLV>
3.19615

>  <SCORE.INTRA.SOLV.lig_0>
-82.6983

>  <SCORE.INTRA.VDW>
-3.86472

>  <SCORE.INTRA.VDW.0>
-2.11466

>  <SCORE.INTRA.norm>
-0.0577628

>  <SCORE.RESTR>
1.32543

>  <SCORE.RESTR.CAVITY>
1.32543

>  <SCORE.RESTR.norm>
0.0509781

>  <SCORE.SYSTEM>
0

>  <SCORE.SYSTEM.CONST>
0

>  <SCORE.SYSTEM.DIHEDRAL>
0

>  <SCORE.SYSTEM.SOLV>
0

>  <SCORE.SYSTEM.norm>
0

>  <SCORE.heavy>
26

>  <SCORE.norm>
-0.280899

>  <RMSD>
23.865

$$$$
ligand
 OpenBabel11021811423D
libRbt.so/2013.1/901 2013/11/27
 26 27  0  0  0  0  0  0  0  0999 V2000
  -16.1466  -12.7863  -75.8073 C   0  0  0  0  0  0  0  0  0  0  0  0
  -12.2934   -5.1725  -78.0052 C   0  0  0  0  0  0  0  0  0  0  0  0
   -8.2871   -6.7694  -76.3355 P   0  0  2  0  0  0  0  0  0  0  0  0
   -9.5258   -8.6916  -74.7730 P   0  0  2  0  0  0  0  0  0  0  0  0
  -13.8595   -7.6195  -76.7760 C   0  0  0  0  0  0  0  0  0  0  0  0
  -15.5526   -9.3881  -77.1831 C   0  0  0  0  0  0  0  0  0  0  0  0
  -14.4358   -8.9732  -76.4692 C   0  0  0  0  0  0  0  0  0  0  0  0
  -13.8656   -9.8484  -75.5402 C   0  0  0  0  0  0  0  0  0  0  0  0
  -12.7878   -9.5660  -74.8078 N   0  0  0  0  0  0  0  0  0  0  0  0
  -14.4368  -11.0798  -75.3482 N   0  0  0  0  0  0  0  0  0  0  0  0
  -15.5475  -11.4526  -76.0515 C   0  0  0  0  0  0  0  0  0  0  0  0
  -16.1143  -10.6289  -76.9708 N   0  0  0  0  0  0  0  0  0  0  0  0
   -7.9014   -7.8305  -77.3471 O   0  5  0  0  0  0  0  0  0  0  0  0
  -10.4139   -8.5542  -73.5569 O   0  0  0  0  0  0  0  0  0  0  0  0
  -10.4604   -8.6070  -78.4611 S   0  0  0  0  0  0  0  0  0  0  0  0
  -11.8618   -8.8049  -77.6531 C   0  0  0  0  0  0  0  0  0  0  0  0
   -7.0327   -6.4844  -75.5139 O   0  0  0  0  0  0  0  0  0  0  0  0
   -8.0778   -8.9187  -74.3891 O   0  5  0  0  0  0  0  0  0  0  0  0
  -12.5762   -7.6418  -77.4365 N   0  0  0  0  0  0  0  0  0  0  0  0
   -9.5957   -7.3051  -75.5566 O   0  0  0  0  0  0  0  0  0  0  0  0
  -10.0429   -9.8435  -75.6105 O   0  0  0  0  0  0  0  0  0  0  0  0
  -11.8852   -6.5920  -77.9895 C   0  0  1  0  0  0  0  0  0  0  0  0
  -10.6945   -7.0322  -78.5885 C   0  0  2  0  0  0  0  0  0  0  0  0
   -9.5706   -6.3651  -79.3424 C   0  0  0  0  0  0  0  0  0  0  0  0
   -8.9254   -5.2519  -78.5101 C   0  0  0  0  0  0  0  0  0  0  0  0
   -9.0677   -5.5522  -77.1272 O   0  0  0  0  0  0  0  0  0  0  0  0
  1 11  1  0  0  0  0
  3 13  1  6  0  0  0
  3 17  2  0  0  0  0
  3 20  1  0  0  0  0
  3 26  1  0  0  0  0
  4 14  1  1  0  0  0
  4 18  1  0  0  0  0
  4 21  2  0  0  0  0
  4 20  1  0  0  0  0
  5 19  1  0  0  0  0
  5  7  1  0  0  0  0
  6  7  2  0  0  0  0
  6 12  1  0  0  0  0
  7  8  1  0  0  0  0
  8  9  1  0  0  0  0
  8 10  2  0  0  0  0
 10 11  1  0  0  0  0
 11 12  2  0  0  0  0
 15 23  1  0  0  0  0
 15 16  1  0  0  0  0
 16 19  1  0  0  0  0
 19 22  1  0  0  0  0
 22  2  1  6  0  0  0
 22 23  1  0  0  0  0
 23 24  1  6  0  0  0
 24 25  1  0  0  0  0
 25 26  1  0  0  0  0
M  CHG  2  13  -1  18  -1
M  END
>  <CHROM.1>
58.33761468,-6.27606562,-110.22293401,146.01623676,-123.46968188,28.15687513
69.69909094,-23.96084215,-11.17238875,-8.26599910,-76.53271798,-2.74909434
-0.36985074,-0.85687123

>  <Name>
ligand

>  <RI>
0

>  <Rbt.Current_Directory>
/home/itssahil/PROJECTS/Mol_Feturizer/New_Systems/rnas/2CKY

>  <Rbt.Executable>
rbdock ($Id: //depot/dev/client3/rdock/2013.1/src/exe/rbdock.cxx#4 $)

>  <Rbt.Library>
libRbt.so (2013.1, Build901 2013/11/27)

>  <Rbt.Parameter_File>
/export/apps/rDock/src/rDock_2013.1_src/data/scripts/dock_solv.prm

>  <Rbt.Receptor>
prm/blind_docking_80.prm

>  <SCORE>
-7.20082

>  <SCORE.INTER>
-7.85494

>  <SCORE.INTER.CONST>
1

>  <SCORE.INTER.POLAR>
0

>  <SCORE.INTER.ROT>
8

>  <SCORE.INTER.SOLV>
10.0377

>  <SCORE.INTER.VDW>
-17.5159

>  <SCORE.INTER.norm>
-0.302113

>  <SCORE.INTRA>
-0.665238

>  <SCORE.INTRA.DIHEDRAL>
-5.11965

>  <SCORE.INTRA.DIHEDRAL.0>
16.4846

>  <SCORE.INTRA.POLAR>
0

>  <SCORE.INTRA.POLAR.0>
0

>  <SCORE.INTRA.REPUL>
0

>  <SCORE.INTRA.REPUL.0>
0

>  <SCORE.INTRA.SOLV>
11.3498

>  <SCORE.INTRA.SOLV.lig_0>
-82.6983

>  <SCORE.INTRA.VDW>
-3.78032

>  <SCORE.INTRA.VDW.0>
-2.11466

>  <SCORE.INTRA.norm>
-0.0255861

>  <SCORE.RESTR>
1.31936

>  <SCORE.RESTR.CAVITY>
1.31936

>  <SCORE.RESTR.norm>
0.0507447

>  <SCORE.SYSTEM>
0

>  <SCORE.SYSTEM.CONST>
0

>  <SCORE.SYSTEM.DIHEDRAL>
0

>  <SCORE.SYSTEM.SOLV>
0

>  <SCORE.SYSTEM.norm>
0

>  <SCORE.heavy>
26

>  <SCORE.norm>
-0.276955

>  <RMSD>
23.898

$$$$
ligand
 OpenBabel11021811423D
libRbt.so/2013.1/901 2013/11/27
 26 27  0  0  0  0  0  0  0  0999 V2000
  -14.5906  -14.3408  -73.5785 C   0  0  0  0  0  0  0  0  0  0  0  0
  -13.3337   -9.1438  -79.4316 C   0  0  0  0  0  0  0  0  0  0  0  0
   -8.9372   -8.4013  -77.5389 P   0  0  2  0  0  0  0  0  0  0  0  0
   -9.4255   -8.7980  -74.8417 P   0  0  2  0  0  0  0  0  0  0  0  0
  -15.5681  -10.3064  -77.5324 C   0  0  0  0  0  0  0  0  0  0  0  0
  -16.0894  -12.4556  -76.4056 C   0  0  0  0  0  0  0  0  0  0  0  0
  -15.2860  -11.3242  -76.4631 C   0  0  0  0  0  0  0  0  0  0  0  0
  -14.2215  -11.2064  -75.5646 C   0  0  0  0  0  0  0  0  0  0  0  0
  -13.3774  -10.1747  -75.5337 N   0  0  0  0  0  0  0  0  0  0  0  0
  -14.0154  -12.2002  -74.6430 N   0  0  0  0  0  0  0  0  0  0  0  0
  -14.8349  -13.2927  -74.5979 C   0  0  0  0  0  0  0  0  0  0  0  0
  -15.8677  -13.4409  -75.4675 N   0  0  0  0  0  0  0  0  0  0  0  0
   -8.4657   -9.3468  -78.6260 O   0  5  0  0  0  0  0  0  0  0  0  0
   -9.7625   -7.3239  -74.8485 O   0  0  0  0  0  0  0  0  0  0  0  0
  -14.1043   -6.8741  -76.3304 S   0  0  0  0  0  0  0  0  0  0  0  0
  -15.0503   -8.2012  -76.3221 C   0  0  0  0  0  0  0  0  0  0  0  0
   -7.7525   -7.4947  -77.2159 O   0  0  0  0  0  0  0  0  0  0  0  0
   -7.9999   -9.0468  -74.3930 O   0  5  0  0  0  0  0  0  0  0  0  0
  -14.8548   -9.0600  -77.3872 N   0  0  0  0  0  0  0  0  0  0  0  0
   -9.5431   -9.3069  -76.3478 O   0  0  0  0  0  0  0  0  0  0  0  0
  -10.4043   -9.5044  -73.9259 O   0  0  0  0  0  0  0  0  0  0  0  0
  -13.8710   -8.5433  -78.1938 C   0  0  1  0  0  0  0  0  0  0  0  0
  -13.3876   -7.3282  -77.6835 C   0  0  2  0  0  0  0  0  0  0  0  0
  -12.3313   -6.3384  -78.1092 C   0  0  0  0  0  0  0  0  0  0  0  0
  -10.9950   -6.6157  -77.4123 C   0  0  0  0  0  0  0  0  0  0  0  0
  -10.3856   -7.7605  -77.9962 O   0  0  0  0  0  0  0  0  0  0  0  0
  1 11  1  0  0  0  0
  3 13  1  6  0  0  0
  3 17  2  0  0  0  0
  3 20  1  0  0  0  0
  3 26  1  0  0  0  0
  4 14  1  1  0  0  0
  4 18  1  0  0  0  0
  4 21  2  0  0  0  0
  4 20  1  0  0  0  0
  5 19  1  0  0  0  0
  5  7  1  0  0  0  0
  6  7  2  0  0  0  0
  6 12  1  0  0  0  0
  7  8  1  0  0  0  0
  8  9  1  0  0  0  0
  8 10  2  0  0  0  0
 10 11  1  0  0  0  0
 11 12  2  0  0  0  0
 15 23  1  0  0  0  0
 15 16  1  0  0  0  0
 16 19  1  0  0  0  0
 19 22  1  0  0  0  0
 22  2  1  1  0  0  0
 22 23  1  0  0  0  0
 23 24  1  1  0  0  0
 24 25  1  0  0  0  0
 25 26  1  0  0  0  0
M  CHG  2  13  -1  18  -1
M  END
>  <CHROM.1>
148.33447753,-64.32776617,169.59974889,43.09537710,84.98379874,74.61282008
-179.90999681,-164.47304347,-12.10579105,-9.29226477,-76.37140897,-2.60702543
-0.23975976,-0.63087108

>  <Name>
ligand

>  <RI>
0

>  <Rbt.Current_Directory>
/home/itssahil/PROJECTS/Mol_Feturizer/New_Systems/rnas/2CKY

>  <Rbt.Executable>
rbdock ($Id: //depot/dev/client3/rdock/2013.1/src/exe/rbdock.cxx#4 $)

>  <Rbt.Library>
libRbt.so (2013.1, Build901 2013/11/27)

>  <Rbt.Parameter_File>
/export/apps/rDock/src/rDock_2013.1_src/data/scripts/dock_solv.prm

>  <Rbt.Receptor>
prm/blind_docking_80.prm

>  <SCORE>
-10.3559

>  <SCORE.INTER>
-9.98584

>  <SCORE.INTER.CONST>
1

>  <SCORE.INTER.POLAR>
0

>  <SCORE.INTER.ROT>
8

>  <SCORE.INTER.SOLV>
10.8396

>  <SCORE.INTER.VDW>
-19.2038

>  <SCORE.INTER.norm>
-0.384071

>  <SCORE.INTRA>
-3.32721

>  <SCORE.INTRA.DIHEDRAL>
-8.35685

>  <SCORE.INTRA.DIHEDRAL.0>
16.4846

>  <SCORE.INTRA.POLAR>
0

>  <SCORE.INTRA.POLAR.0>
0

>  <SCORE.INTRA.REPUL>
0.0590942

>  <SCORE.INTRA.REPUL.0>
0

>  <SCORE.INTRA.SOLV>
5.3598

>  <SCORE.INTRA.SOLV.lig_0>
-82.6983

>  <SCORE.INTRA.VDW>
-2.12415

>  <SCORE.INTRA.VDW.0>
-2.11466

>  <SCORE.INTRA.norm>
-0.12797

>  <SCORE.RESTR>
2.95715

>  <SCORE.RESTR.CAVITY>
2.95715

>  <SCORE.RESTR.norm>
0.113736

>  <SCORE.SYSTEM>
0

>  <SCORE.SYSTEM.CONST>
0

>  <SCORE.SYSTEM.DIHEDRAL>
0

>  <SCORE.SYSTEM.SOLV>
0

>  <SCORE.SYSTEM.norm>
0

>  <SCORE.heavy>
26

>  <SCORE.norm>
-0.398304

>  <RMSD>
23.996

$$$$
ligand
 OpenBabel11021811423D
libRbt.so/2013.1/901 2013/11/27
 26 27  0  0  0  0  0  0  0  0999 V2000
  -13.3946  -14.6882  -74.6419 C   0  0  0  0  0  0  0  0  0  0  0  0
  -14.5284   -9.3632  -79.4165 C   0  0  0  0  0  0  0  0  0  0  0  0
   -9.4955   -8.4318  -77.5905 P   0  0  2  0  0  0  0  0  0  0  0  0
   -9.9413   -8.3968  -74.8573 P   0  0  2  0  0  0  0  0  0  0  0  0
  -16.0128  -10.0278  -76.7134 C   0  0  0  0  0  0  0  0  0  0  0  0
  -15.9082  -12.4590  -76.2250 C   0  0  0  0  0  0  0  0  0  0  0  0
  -15.2963  -11.2155  -76.1349 C   0  0  0  0  0  0  0  0  0  0  0  0
  -14.0237  -11.1298  -75.5625 C   0  0  0  0  0  0  0  0  0  0  0  0
  -13.3345   -9.9956  -75.4341 N   0  0  0  0  0  0  0  0  0  0  0  0
  -13.4280  -12.2708  -75.0907 N   0  0  0  0  0  0  0  0  0  0  0  0
  -14.0633  -13.4776  -75.1756 C   0  0  0  0  0  0  0  0  0  0  0  0
  -15.2934  -13.5933  -75.7396 N   0  0  0  0  0  0  0  0  0  0  0  0
   -9.0009   -9.5021  -78.5434 O   0  5  0  0  0  0  0  0  0  0  0  0
  -11.3322   -8.4689  -74.2684 O   0  0  0  0  0  0  0  0  0  0  0  0
  -13.8620   -6.7534  -76.5691 S   0  0  0  0  0  0  0  0  0  0  0  0
  -14.8702   -7.9248  -76.0522 C   0  0  0  0  0  0  0  0  0  0  0  0
   -8.3678   -7.4102  -77.4708 O   0  0  0  0  0  0  0  0  0  0  0  0
   -9.5311   -6.9695  -75.1576 O   0  5  0  0  0  0  0  0  0  0  0  0
  -15.1713   -8.8894  -76.9951 N   0  0  0  0  0  0  0  0  0  0  0  0
   -9.9851   -9.1787  -76.2457 O   0  0  0  0  0  0  0  0  0  0  0  0
   -8.9775   -9.0341  -73.8771 O   0  0  0  0  0  0  0  0  0  0  0  0
  -14.5063   -8.5895  -78.1585 C   0  0  1  0  0  0  0  0  0  0  0  0
  -13.7457   -7.4182  -78.0166 C   0  0  2  0  0  0  0  0  0  0  0  0
  -12.8244   -6.6304  -78.9149 C   0  0  0  0  0  0  0  0  0  0  0  0
  -11.3882   -6.6339  -78.3804 C   0  0  0  0  0  0  0  0  0  0  0  0
  -11.0041   -7.9665  -78.0652 O   0  0  0  0  0  0  0  0  0  0  0  0
  1 11  1  0  0  0  0
  3 13  1  6  0  0  0
  3 17  2  0  0  0  0
  3 20  1  0  0  0  0
  3 26  1  0  0  0  0
  4 14  1  1  0  0  0
  4 18  1  0  0  0  0
  4 21  2  0  0  0  0
  4 20  1  0  0  0  0
  5 19  1  0  0  0  0
  5  7  1  0  0  0  0
  6  7  2  0  0  0  0
  6 12  1  0  0  0  0
  7  8  1  0  0  0  0
  8  9  1  0  0  0  0
  8 10  2  0  0  0  0
 10 11  1  0  0  0  0
 11 12  2  0  0  0  0
 15 23  1  0  0  0  0
 15 16  1  0  0  0  0
 16 19  1  0  0  0  0
 19 22  1  0  0  0  0
 22  2  1  1  0  0  0
 22 23  1  0  0  0  0
 23 24  1  1  0  0  0
 24 25  1  0  0  0  0
 25 26  1  0  0  0  0
M  CHG  2  13  -1  18  -1
M  END
>  <CHROM.1>
152.69546967,-86.70235737,-160.05726702,125.38593890,63.98256834,48.93243574
174.19971911,-123.48667504,-12.32084887,-9.22082973,-76.48526425,-2.49118802
-0.27683243,-0.53786979

>  <Name>
ligand

>  <RI>
0

>  <Rbt.Current_Directory>
/home/itssahil/PROJECTS/Mol_Feturizer/New_Systems/rnas/2CKY

>  <Rbt.Executable>
rbdock ($Id: //depot/dev/client3/rdock/2013.1/src/exe/rbdock.cxx#4 $)

>  <Rbt.Library>
libRbt.so (2013.1, Build901 2013/11/27)

>  <Rbt.Parameter_File>
/export/apps/rDock/src/rDock_2013.1_src/data/scripts/dock_solv.prm

>  <Rbt.Receptor>
prm/blind_docking_80.prm

>  <SCORE>
-6.254

>  <SCORE.INTER>
-10.3792

>  <SCORE.INTER.CONST>
1

>  <SCORE.INTER.POLAR>
0

>  <SCORE.INTER.ROT>
8

>  <SCORE.INTER.SOLV>
11.472

>  <SCORE.INTER.VDW>
-19.6768

>  <SCORE.INTER.norm>
-0.3992

>  <SCORE.INTRA>
0.760217

>  <SCORE.INTRA.DIHEDRAL>
-4.76896

>  <SCORE.INTRA.DIHEDRAL.0>
16.4846

>  <SCORE.INTRA.POLAR>
0

>  <SCORE.INTRA.POLAR.0>
0

>  <SCORE.INTRA.REPUL>
0.153706

>  <SCORE.INTRA.REPUL.0>
0

>  <SCORE.INTRA.SOLV>
7.62383

>  <SCORE.INTRA.SOLV.lig_0>
-82.6983

>  <SCORE.INTRA.VDW>
-1.43575

>  <SCORE.INTRA.VDW.0>
-2.11466

>  <SCORE.INTRA.norm>
0.0292391

>  <SCORE.RESTR>
3.36498

>  <SCORE.RESTR.CAVITY>
3.36498

>  <SCORE.RESTR.norm>
0.129422

>  <SCORE.SYSTEM>
0

>  <SCORE.SYSTEM.CONST>
0

>  <SCORE.SYSTEM.DIHEDRAL>
0

>  <SCORE.SYSTEM.SOLV>
0

>  <SCORE.SYSTEM.norm>
0

>  <SCORE.heavy>
26

>  <SCORE.norm>
-0.240539

>  <RMSD>
24.009

$$$$
ligand
 OpenBabel11021811423D
libRbt.so/2013.1/901 2013/11/27
 26 27  0  0  0  0  0  0  0  0999 V2000
  -11.4340  -14.8425  -73.9826 C   0  0  0  0  0  0  0  0  0  0  0  0
  -13.3280   -8.7708  -75.2384 C   0  0  0  0  0  0  0  0  0  0  0  0
  -10.5738   -5.2473  -77.4980 P   0  0  2  0  0  0  0  0  0  0  0  0
   -8.7370   -6.1311  -75.6231 P   0  0  2  0  0  0  0  0  0  0  0  0
  -15.4195  -11.0898  -75.6851 C   0  0  0  0  0  0  0  0  0  0  0  0
  -13.2406  -11.6660  -74.6455 C   0  0  0  0  0  0  0  0  0  0  0  0
  -14.3940  -12.1105  -75.2786 C   0  0  0  0  0  0  0  0  0  0  0  0
  -14.5766  -13.4845  -75.4610 C   0  0  0  0  0  0  0  0  0  0  0  0
  -15.6466  -14.0278  -76.0421 N   0  0  0  0  0  0  0  0  0  0  0  0
  -13.6043  -14.3483  -75.0277 N   0  0  0  0  0  0  0  0  0  0  0  0
  -12.4707  -13.8798  -74.4255 C   0  0  0  0  0  0  0  0  0  0  0  0
  -12.2729  -12.5516  -74.2220 N   0  0  0  0  0  0  0  0  0  0  0  0
  -10.5296   -4.6239  -78.8792 O   0  5  0  0  0  0  0  0  0  0  0  0
   -7.5044   -6.9628  -75.8982 O   0  0  0  0  0  0  0  0  0  0  0  0
  -14.8230   -8.8693  -78.8604 S   0  0  0  0  0  0  0  0  0  0  0  0
  -15.4398  -10.0721  -77.9498 C   0  0  0  0  0  0  0  0  0  0  0  0
  -11.5823   -4.4327  -76.6922 O   0  0  0  0  0  0  0  0  0  0  0  0
   -9.9445   -6.9967  -75.3257 O   0  5  0  0  0  0  0  0  0  0  0  0
  -14.9620  -10.1225  -76.6539 N   0  0  0  0  0  0  0  0  0  0  0  0
   -9.0545   -5.3183  -76.9571 O   0  0  0  0  0  0  0  0  0  0  0  0
   -8.4385   -5.2121  -74.4560 O   0  0  0  0  0  0  0  0  0  0  0  0
  -14.0644   -9.0987  -76.4761 C   0  0  1  0  0  0  0  0  0  0  0  0
  -13.9243   -8.3418  -77.6500 C   0  0  2  0  0  0  0  0  0  0  0  0
  -13.1227   -7.1261  -78.0450 C   0  0  0  0  0  0  0  0  0  0  0  0
  -11.7122   -7.5134  -78.5019 C   0  0  0  0  0  0  0  0  0  0  0  0
  -10.7530   -6.8774  -77.6662 O   0  0  0  0  0  0  0  0  0  0  0  0
  1 11  1  0  0  0  0
  3 13  1  6  0  0  0
  3 17  2  0  0  0  0
  3 20  1  0  0  0  0
  3 26  1  0  0  0  0
  4 14  1  6  0  0  0
  4 18  1  0  0  0  0
  4 21  2  0  0  0  0
  4 20  1  0  0  0  0
  5 19  1  0  0  0  0
  5  7  1  0  0  0  0
  6  7  2  0  0  0  0
  6 12  1  0  0  0  0
  7  8  1  0  0  0  0
  8  9  1  0  0  0  0
  8 10  2  0  0  0  0
 10 11  1  0  0  0  0
 11 12  2  0  0  0  0
 15 23  1  0  0  0  0
 15 16  1  0  0  0  0
 16 19  1  0  0  0  0
 19 22  1  0  0  0  0
 22  2  1  1  0  0  0
 22 23  1  0  0  0  0
 23 24  1  1  0  0  0
 24 25  1  0  0  0  0
 25 26  1  0  0  0  0
M  CHG  2  13  -1  18  -1
M  END
>  <CHROM.1>
-170.54889222,112.02065833,62.40356976,134.83015858,-94.98418112,-120.35059355
-61.19165811,-48.49562455,-12.10913461,-8.74869077,-76.42046317,-2.19246078
-0.50365367,-0.50357556

>  <Name>
ligand

>  <RI>
0

>  <Rbt.Current_Directory>
/home/itssahil/PROJECTS/Mol_Feturizer/New_Systems/rnas/2CKY

>  <Rbt.Executable>
rbdock ($Id: //depot/dev/client3/rdock/2013.1/src/exe/rbdock.cxx#4 $)

>  <Rbt.Library>
libRbt.so (2013.1, Build901 2013/11/27)

>  <Rbt.Parameter_File>
/export/apps/rDock/src/rDock_2013.1_src/data/scripts/dock_solv.prm

>  <Rbt.Receptor>
prm/blind_docking_80.prm

>  <SCORE>
-7.10697

>  <SCORE.INTER>
-11.6636

>  <SCORE.INTER.CONST>
1

>  <SCORE.INTER.POLAR>
0

>  <SCORE.INTER.ROT>
8

>  <SCORE.INTER.SOLV>
21.218

>  <SCORE.INTER.VDW>
-23.7817

>  <SCORE.INTER.norm>
-0.448598

>  <SCORE.INTRA>
-0.387684

>  <SCORE.INTRA.DIHEDRAL>
-3.52158

>  <SCORE.INTRA.DIHEDRAL.0>
16.4846

>  <SCORE.INTRA.POLAR>
0

>  <SCORE.INTRA.POLAR.0>
0

>  <SCORE.INTRA.REPUL>
0

>  <SCORE.INTRA.REPUL.0>
0

>  <SCORE.INTRA.SOLV>
2.6426

>  <SCORE.INTRA.SOLV.lig_0>
-82.6983

>  <SCORE.INTRA.VDW>
0.05181

>  <SCORE.INTRA.VDW.0>
-2.11466

>  <SCORE.INTRA.norm>
-0.0149109

>  <SCORE.RESTR>
4.94428

>  <SCORE.RESTR.CAVITY>
4.94428

>  <SCORE.RESTR.norm>
0.190165

>  <SCORE.SYSTEM>
0

>  <SCORE.SYSTEM.CONST>
0

>  <SCORE.SYSTEM.DIHEDRAL>
0

>  <SCORE.SYSTEM.SOLV>
0

>  <SCORE.SYSTEM.norm>
0

>  <SCORE.heavy>
26

>  <SCORE.norm>
-0.273345

>  <RMSD>
24.047

$$$$
ligand
 OpenBabel11021811423D
libRbt.so/2013.1/901 2013/11/27
 26 27  0  0  0  0  0  0  0  0999 V2000
  -15.9657  -14.0144  -75.4152 C   0  0  0  0  0  0  0  0  0  0  0  0
  -10.9986   -8.6376  -77.4654 C   0  0  0  0  0  0  0  0  0  0  0  0
   -8.9847   -5.7602  -78.0464 P   0  0  2  0  0  0  0  0  0  0  0  0
  -11.5072   -4.7399  -77.5304 P   0  0  2  0  0  0  0  0  0  0  0  0
  -13.7275   -8.7577  -75.8874 C   0  0  0  0  0  0  0  0  0  0  0  0
  -13.8621  -11.0070  -74.8466 C   0  0  0  0  0  0  0  0  0  0  0  0
  -14.3303  -10.1328  -75.8190 C   0  0  0  0  0  0  0  0  0  0  0  0
  -15.3736  -10.5467  -76.6522 C   0  0  0  0  0  0  0  0  0  0  0  0
  -15.9125   -9.7917  -77.6100 N   0  0  0  0  0  0  0  0  0  0  0  0
  -15.8886  -11.8078  -76.4974 N   0  0  0  0  0  0  0  0  0  0  0  0
  -15.3939  -12.6529  -75.5443 C   0  0  0  0  0  0  0  0  0  0  0  0
  -14.3908  -12.2727  -74.7113 N   0  0  0  0  0  0  0  0  0  0  0  0
   -7.7983   -4.8220  -77.9452 O   0  5  0  0  0  0  0  0  0  0  0  0
  -12.2792   -5.9690  -77.9548 O   0  0  0  0  0  0  0  0  0  0  0  0
  -10.5725   -8.5462  -73.5701 S   0  0  0  0  0  0  0  0  0  0  0  0
  -12.1492   -8.6223  -73.9754 C   0  0  0  0  0  0  0  0  0  0  0  0
   -9.3687   -5.8079  -79.5230 O   0  0  0  0  0  0  0  0  0  0  0  0
  -11.2401   -3.8126  -78.6984 O   0  5  0  0  0  0  0  0  0  0  0  0
  -12.3986   -8.6495  -75.3345 N   0  0  0  0  0  0  0  0  0  0  0  0
  -10.0935   -5.2436  -76.9930 O   0  0  0  0  0  0  0  0  0  0  0  0
  -12.3024   -4.0281  -76.4548 O   0  0  0  0  0  0  0  0  0  0  0  0
  -11.1994   -8.6096  -76.0023 C   0  0  1  0  0  0  0  0  0  0  0  0
  -10.1232   -8.5559  -75.1027 C   0  0  2  0  0  0  0  0  0  0  0  0
   -8.6212   -8.5133  -75.2391 C   0  0  0  0  0  0  0  0  0  0  0  0
   -8.1575   -7.2032  -75.8848 C   0  0  0  0  0  0  0  0  0  0  0  0
   -8.6272   -7.1447  -77.2260 O   0  0  0  0  0  0  0  0  0  0  0  0
  1 11  1  0  0  0  0
  3 13  1  1  0  0  0
  3 17  2  0  0  0  0
  3 20  1  0  0  0  0
  3 26  1  0  0  0  0
  4 14  1  6  0  0  0
  4 18  1  0  0  0  0
  4 21  2  0  0  0  0
  4 20  1  0  0  0  0
  5 19  1  0  0  0  0
  5  7  1  0  0  0  0
  6  7  2  0  0  0  0
  6 12  1  0  0  0  0
  7  8  1  0  0  0  0
  8  9  1  0  0  0  0
  8 10  2  0  0  0  0
 10 11  1  0  0  0  0
 11 12  2  0  0  0  0
 15 23  1  0  0  0  0
 15 16  1  0  0  0  0
 16 19  1  0  0  0  0
 19 22  1  0  0  0  0
 22  2  1  1  0  0  0
 22 23  1  0  0  0  0
 23 24  1  1  0  0  0
 24 25  1  0  0  0  0
 25 26  1  0  0  0  0
M  CHG  2  13  -1  18  -1
M  END
>  <CHROM.1>
116.84759387,-76.07323598,24.08434082,73.62499986,-113.88898715,-65.57855116
150.41121206,51.93154209,-11.67973135,-7.91423091,-76.45519393,2.30106445
0.36697411,2.50842627

>  <Name>
ligand

>  <RI>
0

>  <Rbt.Current_Directory>
/home/itssahil/PROJECTS/Mol_Feturizer/New_Systems/rnas/2CKY

>  <Rbt.Executable>
rbdock ($Id: //depot/dev/client3/rdock/2013.1/src/exe/rbdock.cxx#4 $)

>  <Rbt.Library>
libRbt.so (2013.1, Build901 2013/11/27)

>  <Rbt.Parameter_File>
/export/apps/rDock/src/rDock_2013.1_src/data/scripts/dock_solv.prm

>  <Rbt.Receptor>
prm/blind_docking_80.prm

>  <SCORE>
-9.47987

>  <SCORE.INTER>
-7.59425

>  <SCORE.INTER.CONST>
1

>  <SCORE.INTER.POLAR>
0

>  <SCORE.INTER.ROT>
8

>  <SCORE.INTER.SOLV>
24.8519

>  <SCORE.INTER.VDW>
-22.2801

>  <SCORE.INTER.norm>
-0.292087

>  <SCORE.INTRA>
-4.0816

>  <SCORE.INTRA.DIHEDRAL>
-5.80036

>  <SCORE.INTRA.DIHEDRAL.0>
16.4846

>  <SCORE.INTRA.POLAR>
0

>  <SCORE.INTRA.POLAR.0>
0

>  <SCORE.INTRA.REPUL>
0

>  <SCORE.INTRA.REPUL.0>
0

>  <SCORE.INTRA.SOLV>
1.02447

>  <SCORE.INTRA.SOLV.lig_0>
-82.6983

>  <SCORE.INTRA.VDW>
-1.69366

>  <SCORE.INTRA.VDW.0>
-2.11466

>  <SCORE.INTRA.norm>
-0.156985

>  <SCORE.RESTR>
2.19599

>  <SCORE.RESTR.CAVITY>
2.19599

>  <SCORE.RESTR.norm>
0.0844611

>  <SCORE.SYSTEM>
0

>  <SCORE.SYSTEM.CONST>
0

>  <SCORE.SYSTEM.DIHEDRAL>
0

>  <SCORE.SYSTEM.SOLV>
0

>  <SCORE.SYSTEM.norm>
0

>  <SCORE.heavy>
26

>  <SCORE.norm>
-0.36461

>  <RMSD>
24.064

$$$$
ligand
 OpenBabel11021811423D
libRbt.so/2013.1/901 2013/11/27
 26 27  0  0  0  0  0  0  0  0999 V2000
  -16.4095  -11.3473  -76.9150 C   0  0  0  0  0  0  0  0  0  0  0  0
  -10.2523   -8.0931  -72.7316 C   0  0  0  0  0  0  0  0  0  0  0  0
  -10.2192   -5.8831  -77.7281 P   0  0  2  0  0  0  0  0  0  0  0  0
  -12.6192   -7.2339  -77.4355 P   0  0  2  0  0  0  0  0  0  0  0  0
  -11.5085  -10.6864  -74.0152 C   0  0  0  0  0  0  0  0  0  0  0  0
  -13.2891   -9.8741  -75.5417 C   0  0  0  0  0  0  0  0  0  0  0  0
  -12.8096  -10.8994  -74.7368 C   0  0  0  0  0  0  0  0  0  0  0  0
  -13.5246  -12.0991  -74.6750 C   0  0  0  0  0  0  0  0  0  0  0  0
  -13.1559  -13.1548  -73.9489 N   0  0  0  0  0  0  0  0  0  0  0  0
  -14.6855  -12.2197  -75.3941 N   0  0  0  0  0  0  0  0  0  0  0  0
  -15.1427  -11.1861  -76.1622 C   0  0  0  0  0  0  0  0  0  0  0  0
  -14.4616  -10.0146  -76.2528 N   0  0  0  0  0  0  0  0  0  0  0  0
  -10.8959   -4.9117  -78.6750 O   0  5  0  0  0  0  0  0  0  0  0  0
  -13.6836   -7.3340  -76.3661 O   0  0  0  0  0  0  0  0  0  0  0  0
   -9.2401   -8.6470  -76.4775 S   0  0  0  0  0  0  0  0  0  0  0  0
  -10.2118   -9.8486  -75.9597 C   0  0  0  0  0  0  0  0  0  0  0  0
   -9.4205   -6.8470  -78.6016 O   0  0  0  0  0  0  0  0  0  0  0  0
  -12.1504   -8.6005  -77.8919 O   0  5  0  0  0  0  0  0  0  0  0  0
  -10.6144   -9.7424  -74.6419 N   0  0  0  0  0  0  0  0  0  0  0  0
  -11.3673   -6.5001  -76.7757 O   0  0  0  0  0  0  0  0  0  0  0  0
  -13.1886   -6.4487  -78.5996 O   0  0  0  0  0  0  0  0  0  0  0  0
  -10.0684   -8.6022  -74.1059 C   0  0  1  0  0  0  0  0  0  0  0  0
   -9.2900   -7.9218  -75.0554 C   0  0  2  0  0  0  0  0  0  0  0  0
   -8.4844   -6.6460  -75.0564 C   0  0  0  0  0  0  0  0  0  0  0  0
   -9.3903   -5.4155  -75.1721 C   0  0  0  0  0  0  0  0  0  0  0  0
   -9.4783   -5.0194  -76.5353 O   0  0  0  0  0  0  0  0  0  0  0  0
  1 11  1  0  0  0  0
  3 13  1  6  0  0  0
  3 17  2  0  0  0  0
  3 20  1  0  0  0  0
  3 26  1  0  0  0  0
  4 14  1  1  0  0  0
  4 18  1  0  0  0  0
  4 21  2  0  0  0  0
  4 20  1  0  0  0  0
  5 19  1  0  0  0  0
  5  7  1  0  0  0  0
  6  7  2  0  0  0  0
  6 12  1  0  0  0  0
  7  8  1  0  0  0  0
  8  9  1  0  0  0  0
  8 10  2  0  0  0  0
 10 11  1  0  0  0  0
 11 12  2  0  0  0  0
 15 23  1  0  0  0  0
 15 16  1  0  0  0  0
 16 19  1  0  0  0  0
 19 22  1  0  0  0  0
 22  2  1  6  0  0  0
 22 23  1  0  0  0  0
 23 24  1  6  0  0  0
 24 25  1  0  0  0  0
 25 26  1  0  0  0  0
M  CHG  2  13  -1  18  -1
M  END
>  <CHROM.1>
56.52405612,-54.19325723,-25.90848262,-163.77157067,102.16208161,-95.36474693
67.76938398,143.35436998,-11.60459158,-8.37644934,-76.20662849,2.29730740
0.48558723,2.43925357

>  <Name>
ligand

>  <RI>
0

>  <Rbt.Current_Directory>
/home/itssahil/PROJECTS/Mol_Feturizer/New_Systems/rnas/2CKY

>  <Rbt.Executable>
rbdock ($Id: //depot/dev/client3/rdock/2013.1/src/exe/rbdock.cxx#4 $)

>  <Rbt.Library>
libRbt.so (2013.1, Build901 2013/11/27)

>  <Rbt.Parameter_File>
/export/apps/rDock/src/rDock_2013.1_src/data/scripts/dock_solv.prm

>  <Rbt.Receptor>
prm/blind_docking_80.prm

>  <SCORE>
-9.90885

>  <SCORE.INTER>
-8.07525

>  <SCORE.INTER.CONST>
1

>  <SCORE.INTER.POLAR>
0

>  <SCORE.INTER.ROT>
8

>  <SCORE.INTER.SOLV>
10.335

>  <SCORE.INTER.VDW>
-17.7618

>  <SCORE.INTER.norm>
-0.310586

>  <SCORE.INTRA>
-3.58744

>  <SCORE.INTRA.DIHEDRAL>
-6.04597

>  <SCORE.INTRA.DIHEDRAL.0>
16.4846

>  <SCORE.INTRA.POLAR>
0

>  <SCORE.INTRA.POLAR.0>
0

>  <SCORE.INTRA.REPUL>
0

>  <SCORE.INTRA.REPUL.0>
0

>  <SCORE.INTRA.SOLV>
5.55595

>  <SCORE.INTRA.SOLV.lig_0>
-82.6983

>  <SCORE.INTRA.VDW>
-3.34243

>  <SCORE.INTRA.VDW.0>
-2.11466

>  <SCORE.INTRA.norm>
-0.137978

>  <SCORE.RESTR>
1.75383

>  <SCORE.RESTR.CAVITY>
1.75383

>  <SCORE.RESTR.norm>
0.0674551

>  <SCORE.SYSTEM>
0

>  <SCORE.SYSTEM.CONST>
0

>  <SCORE.SYSTEM.DIHEDRAL>
0

>  <SCORE.SYSTEM.SOLV>
0

>  <SCORE.SYSTEM.norm>
0

>  <SCORE.heavy>
26

>  <SCORE.norm>
-0.38111

>  <RMSD>
24.084

$$$$
ligand
 OpenBabel11021811423D
libRbt.so/2013.1/901 2013/11/27
 26 27  0  0  0  0  0  0  0  0999 V2000
  -15.6335  -14.0345  -73.4135 C   0  0  0  0  0  0  0  0  0  0  0  0
  -12.9876   -8.8970  -79.3678 C   0  0  0  0  0  0  0  0  0  0  0  0
   -8.9395   -8.3980  -77.5522 P   0  0  2  0  0  0  0  0  0  0  0  0
   -9.3484   -8.8384  -74.8486 P   0  0  2  0  0  0  0  0  0  0  0  0
  -15.3043  -10.2815  -77.7347 C   0  0  0  0  0  0  0  0  0  0  0  0
  -16.3801  -12.1715  -76.5384 C   0  0  0  0  0  0  0  0  0  0  0  0
  -15.3611  -11.2283  -76.5689 C   0  0  0  0  0  0  0  0  0  0  0  0
  -14.4054  -11.2347  -75.5486 C   0  0  0  0  0  0  0  0  0  0  0  0
  -13.3774  -10.3884  -75.4793 N   0  0  0  0  0  0  0  0  0  0  0  0
  -14.5143  -12.1574  -74.5405 N   0  0  0  0  0  0  0  0  0  0  0  0
  -15.5395  -13.0606  -74.5272 C   0  0  0  0  0  0  0  0  0  0  0  0
  -16.4739  -13.0874  -75.5125 N   0  0  0  0  0  0  0  0  0  0  0  0
   -8.5954   -9.3194  -78.7057 O   0  5  0  0  0  0  0  0  0  0  0  0
   -7.9217   -9.1371  -74.4464 O   0  0  0  0  0  0  0  0  0  0  0  0
  -14.1248   -6.8661  -76.2142 S   0  0  0  0  0  0  0  0  0  0  0  0
  -14.9974   -8.2344  -76.3635 C   0  0  0  0  0  0  0  0  0  0  0  0
   -7.6869   -7.5707  -77.2762 O   0  0  0  0  0  0  0  0  0  0  0  0
  -10.3431   -9.6201  -74.0149 O   0  5  0  0  0  0  0  0  0  0  0  0
  -14.6715   -9.0143  -77.4570 N   0  0  0  0  0  0  0  0  0  0  0  0
   -9.5145   -9.3207  -76.3589 O   0  0  0  0  0  0  0  0  0  0  0  0
   -9.5813   -7.3486  -74.6997 O   0  0  0  0  0  0  0  0  0  0  0  0
  -13.6541   -8.4017  -78.1463 C   0  0  1  0  0  0  0  0  0  0  0  0
  -13.2781   -7.1996  -77.5266 C   0  0  2  0  0  0  0  0  0  0  0  0
  -12.2443   -6.1360  -77.8031 C   0  0  0  0  0  0  0  0  0  0  0  0
  -10.8829   -6.5150  -77.2104 C   0  0  0  0  0  0  0  0  0  0  0  0
  -10.3770   -7.6617  -77.8828 O   0  0  0  0  0  0  0  0  0  0  0  0
  1 11  1  0  0  0  0
  3 13  1  6  0  0  0
  3 17  2  0  0  0  0
  3 20  1  0  0  0  0
  3 26  1  0  0  0  0
  4 14  1  1  0  0  0
  4 18  1  0  0  0  0
  4 21  2  0  0  0  0
  4 20  1  0  0  0  0
  5 19  1  0  0  0  0
  5  7  1  0  0  0  0
  6  7  2  0  0  0  0
  6 12  1  0  0  0  0
  7  8  1  0  0  0  0
  8  9  1  0  0  0  0
  8 10  2  0  0  0  0
 10 11  1  0  0  0  0
 11 12  2  0  0  0  0
 15 23  1  0  0  0  0
 15 16  1  0  0  0  0
 16 19  1  0  0  0  0
 19 22  1  0  0  0  0
 22  2  1  1  0  0  0
 22 23  1  0  0  0  0
 23 24  1  1  0  0  0
 24 25  1  0  0  0  0
 25 26  1  0  0  0  0
M  CHG  2  13  -1  18  -1
M  END
>  <CHROM.1>
152.14853534,-49.33563792,153.39770985,-78.31158423,94.73557807,65.89426280
-179.91449610,-164.69903203,-12.15612399,-9.23972463,-76.34498780,-2.64435499
-0.22948688,-0.67527816

>  <Name>
ligand

>  <RI>
0

>  <Rbt.Current_Directory>
/home/itssahil/PROJECTS/Mol_Feturizer/New_Systems/rnas/2CKY

>  <Rbt.Executable>
rbdock ($Id: //depot/dev/client3/rdock/2013.1/src/exe/rbdock.cxx#4 $)

>  <Rbt.Library>
libRbt.so (2013.1, Build901 2013/11/27)

>  <Rbt.Parameter_File>
/export/apps/rDock/src/rDock_2013.1_src/data/scripts/dock_solv.prm

>  <Rbt.Receptor>
prm/blind_docking_80.prm

>  <SCORE>
-11.5291

>  <SCORE.INTER>
-11.0926

>  <SCORE.INTER.CONST>
1

>  <SCORE.INTER.POLAR>
0

>  <SCORE.INTER.ROT>
8

>  <SCORE.INTER.SOLV>
10.3505

>  <SCORE.INTER.VDW>
-19.7786

>  <SCORE.INTER.norm>
-0.426639

>  <SCORE.INTRA>
-3.49481

>  <SCORE.INTRA.DIHEDRAL>
-9.30273

>  <SCORE.INTRA.DIHEDRAL.0>
16.4846

>  <SCORE.INTRA.POLAR>
0

>  <SCORE.INTRA.POLAR.0>
0

>  <SCORE.INTRA.REPUL>
0.107662

>  <SCORE.INTRA.REPUL.0>
0

>  <SCORE.INTRA.SOLV>
6.36099

>  <SCORE.INTRA.SOLV.lig_0>
-82.6983

>  <SCORE.INTRA.VDW>
-2.56225

>  <SCORE.INTRA.VDW.0>
-2.11466

>  <SCORE.INTRA.norm>
-0.134416

>  <SCORE.RESTR>
3.05831

>  <SCORE.RESTR.CAVITY>
3.05831

>  <SCORE.RESTR.norm>
0.117627

>  <SCORE.SYSTEM>
0

>  <SCORE.SYSTEM.CONST>
0

>  <SCORE.SYSTEM.DIHEDRAL>
0

>  <SCORE.SYSTEM.SOLV>
0

>  <SCORE.SYSTEM.norm>
0

>  <SCORE.heavy>
26

>  <SCORE.norm>
-0.443428

>  <RMSD>
24.085

$$$$
ligand
 OpenBabel11021811423D
libRbt.so/2013.1/901 2013/11/27
 26 27  0  0  0  0  0  0  0  0999 V2000
  -13.9985  -13.9109  -73.2004 C   0  0  0  0  0  0  0  0  0  0  0  0
  -13.1583   -9.0131  -79.3793 C   0  0  0  0  0  0  0  0  0  0  0  0
   -9.0586   -8.3864  -77.4719 P   0  0  2  0  0  0  0  0  0  0  0  0
   -9.6496   -8.9301  -74.8213 P   0  0  2  0  0  0  0  0  0  0  0  0
  -15.3057  -10.3177  -77.4719 C   0  0  0  0  0  0  0  0  0  0  0  0
  -13.8366  -11.1113  -75.6355 C   0  0  0  0  0  0  0  0  0  0  0  0
  -14.9952  -11.3001  -76.3777 C   0  0  0  0  0  0  0  0  0  0  0  0
  -15.8463  -12.3573  -76.0425 C   0  0  0  0  0  0  0  0  0  0  0  0
  -16.9893  -12.6282  -76.6733 N   0  0  0  0  0  0  0  0  0  0  0  0
  -15.5022  -13.1856  -75.0058 N   0  0  0  0  0  0  0  0  0  0  0  0
  -14.3455  -12.9865  -74.3061 C   0  0  0  0  0  0  0  0  0  0  0  0
  -13.5069  -11.9592  -74.5999 N   0  0  0  0  0  0  0  0  0  0  0  0
   -8.5803   -9.3311  -78.5567 O   0  5  0  0  0  0  0  0  0  0  0  0
   -8.2954   -9.4586  -74.4047 O   0  0  0  0  0  0  0  0  0  0  0  0
  -14.0570   -6.8010  -76.2709 S   0  0  0  0  0  0  0  0  0  0  0  0
  -14.9169   -8.1855  -76.2606 C   0  0  0  0  0  0  0  0  0  0  0  0
   -7.8342   -7.5924  -77.0246 O   0  0  0  0  0  0  0  0  0  0  0  0
  -10.7751   -9.6160  -74.0740 O   0  5  0  0  0  0  0  0  0  0  0  0
  -14.6722   -9.0288  -77.3279 N   0  0  0  0  0  0  0  0  0  0  0  0
   -9.8270   -9.2778  -76.3669 O   0  0  0  0  0  0  0  0  0  0  0  0
   -9.6740   -7.4363  -74.5692 O   0  0  0  0  0  0  0  0  0  0  0  0
  -13.7269   -8.4496  -78.1381 C   0  0  1  0  0  0  0  0  0  0  0  0
  -13.3192   -7.2069  -77.6280 C   0  0  2  0  0  0  0  0  0  0  0  0
  -12.3298   -6.1516  -78.0568 C   0  0  0  0  0  0  0  0  0  0  0  0
  -10.9424   -6.4140  -77.4614 C   0  0  0  0  0  0  0  0  0  0  0  0
  -10.4106   -7.6129  -78.0118 O   0  0  0  0  0  0  0  0  0  0  0  0
  1 11  1  0  0  0  0
  3 13  1  6  0  0  0
  3 17  2  0  0  0  0
  3 20  1  0  0  0  0
  3 26  1  0  0  0  0
  4 14  1  1  0  0  0
  4 18  1  0  0  0  0
  4 21  2  0  0  0  0
  4 20  1  0  0  0  0
  5 19  1  0  0  0  0
  5  7  1  0  0  0  0
  6  7  2  0  0  0  0
  6 12  1  0  0  0  0
  7  8  1  0  0  0  0
  8  9  1  0  0  0  0
  8 10  2  0  0  0  0
 10 11  1  0  0  0  0
 11 12  2  0  0  0  0
 15 23  1  0  0  0  0
 15 16  1  0  0  0  0
 16 19  1  0  0  0  0
 19 22  1  0  0  0  0
 22  2  1  1  0  0  0
 22 23  1  0  0  0  0
 23 24  1  1  0  0  0
 24 25  1  0  0  0  0
 25 26  1  0  0  0  0
M  CHG  2  13  -1  18  -1
M  END
>  <CHROM.1>
141.28183790,-62.14198817,-22.36338595,-77.03550419,89.89469867,66.14664136
-169.64878223,-162.02157463,-12.16619926,-9.32606681,-76.32465399,-2.57683902
-0.25014441,-0.64052350

>  <Name>
ligand

>  <RI>
0

>  <Rbt.Current_Directory>
/home/itssahil/PROJECTS/Mol_Feturizer/New_Systems/rnas/2CKY

>  <Rbt.Executable>
rbdock ($Id: //depot/dev/client3/rdock/2013.1/src/exe/rbdock.cxx#4 $)

>  <Rbt.Library>
libRbt.so (2013.1, Build901 2013/11/27)

>  <Rbt.Parameter_File>
/export/apps/rDock/src/rDock_2013.1_src/data/scripts/dock_solv.prm

>  <Rbt.Receptor>
prm/blind_docking_80.prm

>  <SCORE>
-10.5669

>  <SCORE.INTER>
-7.18559

>  <SCORE.INTER.CONST>
1

>  <SCORE.INTER.POLAR>
0

>  <SCORE.INTER.ROT>
8

>  <SCORE.INTER.SOLV>
12.0804

>  <SCORE.INTER.VDW>
-17.7505

>  <SCORE.INTER.norm>
-0.276369

>  <SCORE.INTRA>
-6.10587

>  <SCORE.INTRA.DIHEDRAL>
-7.82352

>  <SCORE.INTRA.DIHEDRAL.0>
16.4846

>  <SCORE.INTRA.POLAR>
0

>  <SCORE.INTRA.POLAR.0>
0

>  <SCORE.INTRA.REPUL>
0

>  <SCORE.INTRA.REPUL.0>
0

>  <SCORE.INTRA.SOLV>
0.889862

>  <SCORE.INTRA.SOLV.lig_0>
-82.6983

>  <SCORE.INTRA.VDW>
-2.63904

>  <SCORE.INTRA.VDW.0>
-2.11466

>  <SCORE.INTRA.norm>
-0.234841

>  <SCORE.RESTR>
2.72454

>  <SCORE.RESTR.CAVITY>
2.72454

>  <SCORE.RESTR.norm>
0.10479

>  <SCORE.SYSTEM>
0

>  <SCORE.SYSTEM.CONST>
0

>  <SCORE.SYSTEM.DIHEDRAL>
0

>  <SCORE.SYSTEM.SOLV>
0

>  <SCORE.SYSTEM.norm>
0

>  <SCORE.heavy>
26

>  <SCORE.norm>
-0.40642

>  <RMSD>
24.087

$$$$
ligand
 OpenBabel11021811423D
libRbt.so/2013.1/901 2013/11/27
 26 27  0  0  0  0  0  0  0  0999 V2000
  -13.0013  -13.9046  -73.9362 C   0  0  0  0  0  0  0  0  0  0  0  0
  -14.4004   -7.2893  -75.6877 C   0  0  0  0  0  0  0  0  0  0  0  0
   -9.3324   -7.8926  -77.4957 P   0  0  2  0  0  0  0  0  0  0  0  0
   -9.9788   -8.9575  -75.0221 P   0  0  2  0  0  0  0  0  0  0  0  0
  -15.7555   -9.8577  -76.9199 C   0  0  0  0  0  0  0  0  0  0  0  0
  -13.8311  -10.6830  -75.5872 C   0  0  0  0  0  0  0  0  0  0  0  0
  -15.0625  -10.9587  -76.1674 C   0  0  0  0  0  0  0  0  0  0  0  0
  -15.6273  -12.2240  -75.9820 C   0  0  0  0  0  0  0  0  0  0  0  0
  -16.8068  -12.5983  -76.4785 N   0  0  0  0  0  0  0  0  0  0  0  0
  -14.9407  -13.1586  -75.2510 N   0  0  0  0  0  0  0  0  0  0  0  0
  -13.7215  -12.8643  -74.7087 C   0  0  0  0  0  0  0  0  0  0  0  0
  -13.1551  -11.6392  -74.8601 N   0  0  0  0  0  0  0  0  0  0  0  0
   -8.7331   -8.7286  -78.6092 O   0  5  0  0  0  0  0  0  0  0  0  0
  -10.9986   -9.9202  -74.4566 O   0  0  0  0  0  0  0  0  0  0  0  0
  -13.5616   -7.8511  -79.4751 S   0  0  0  0  0  0  0  0  0  0  0  0
  -14.5304   -9.0372  -78.9176 C   0  0  0  0  0  0  0  0  0  0  0  0
   -8.1651   -7.1765  -76.8216 O   0  0  0  0  0  0  0  0  0  0  0  0
  -10.1562   -7.5595  -74.4656 O   0  5  0  0  0  0  0  0  0  0  0  0
  -14.8734   -8.9275  -77.5833 N   0  0  0  0  0  0  0  0  0  0  0  0
  -10.2380   -8.8780  -76.5929 O   0  0  0  0  0  0  0  0  0  0  0  0
   -8.5963   -9.4883  -74.7011 O   0  0  0  0  0  0  0  0  0  0  0  0
  -14.2852   -7.7981  -77.0696 C   0  0  1  0  0  0  0  0  0  0  0  0
  -13.5372   -7.1287  -78.0509 C   0  0  2  0  0  0  0  0  0  0  0  0
  -12.7107   -5.8669  -78.0847 C   0  0  0  0  0  0  0  0  0  0  0  0
  -11.3577   -6.0686  -77.3941 C   0  0  0  0  0  0  0  0  0  0  0  0
  -10.6013   -7.0377  -78.1094 O   0  0  0  0  0  0  0  0  0  0  0  0
  1 11  1  0  0  0  0
  3 13  1  6  0  0  0
  3 17  2  0  0  0  0
  3 20  1  0  0  0  0
  3 26  1  0  0  0  0
  4 14  1  1  0  0  0
  4 18  1  0  0  0  0
  4 21  2  0  0  0  0
  4 20  1  0  0  0  0
  5 19  1  0  0  0  0
  5  7  1  0  0  0  0
  6  7  2  0  0  0  0
  6 12  1  0  0  0  0
  7  8  1  0  0  0  0
  8  9  1  0  0  0  0
  8 10  2  0  0  0  0
 10 11  1  0  0  0  0
 11 12  2  0  0  0  0
 15 23  1  0  0  0  0
 15 16  1  0  0  0  0
 16 19  1  0  0  0  0
 19 22  1  0  0  0  0
 22  2  1  6  0  0  0
 22 23  1  0  0  0  0
 23 24  1  6  0  0  0
 24 25  1  0  0  0  0
 25 26  1  0  0  0  0
M  CHG  2  13  -1  18  -1
M  END
>  <CHROM.1>
125.79754875,96.17928263,32.22333604,178.30903766,-104.88020039,63.78470380
-159.89199890,-175.31365934,-12.26227889,-9.17254200,-76.56852796,-2.50707604
-0.31269030,-0.67372554

>  <Name>
ligand

>  <RI>
0

>  <Rbt.Current_Directory>
/home/itssahil/PROJECTS/Mol_Feturizer/New_Systems/rnas/2CKY

>  <Rbt.Executable>
rbdock ($Id: //depot/dev/client3/rdock/2013.1/src/exe/rbdock.cxx#4 $)

>  <Rbt.Library>
libRbt.so (2013.1, Build901 2013/11/27)

>  <Rbt.Parameter_File>
/export/apps/rDock/src/rDock_2013.1_src/data/scripts/dock_solv.prm

>  <Rbt.Receptor>
prm/blind_docking_80.prm

>  <SCORE>
-14.4295

>  <SCORE.INTER>
-11.2814

>  <SCORE.INTER.CONST>
1

>  <SCORE.INTER.POLAR>
0

>  <SCORE.INTER.ROT>
8

>  <SCORE.INTER.SOLV>
12.9485

>  <SCORE.INTER.VDW>
-20.7705

>  <SCORE.INTER.norm>
-0.433901

>  <SCORE.INTRA>
-5.92148

>  <SCORE.INTRA.DIHEDRAL>
-7.45939

>  <SCORE.INTRA.DIHEDRAL.0>
16.4846

>  <SCORE.INTRA.POLAR>
0

>  <SCORE.INTRA.POLAR.0>
0

>  <SCORE.INTRA.REPUL>
0

>  <SCORE.INTRA.REPUL.0>
0

>  <SCORE.INTRA.SOLV>
1.77074

>  <SCORE.INTRA.SOLV.lig_0>
-82.6983

>  <SCORE.INTRA.VDW>
-3.07716

>  <SCORE.INTRA.VDW.0>
-2.11466

>  <SCORE.INTRA.norm>
-0.227749

>  <SCORE.RESTR>
2.77335

>  <SCORE.RESTR.CAVITY>
2.77335

>  <SCORE.RESTR.norm>
0.106667

>  <SCORE.SYSTEM>
0

>  <SCORE.SYSTEM.CONST>
0

>  <SCORE.SYSTEM.DIHEDRAL>
0

>  <SCORE.SYSTEM.SOLV>
0

>  <SCORE.SYSTEM.norm>
0

>  <SCORE.heavy>
26

>  <SCORE.norm>
-0.554983

>  <RMSD>
24.109

$$$$
ligand
 OpenBabel11021811423D
libRbt.so/2013.1/901 2013/11/27
 26 27  0  0  0  0  0  0  0  0999 V2000
  -13.6387  -14.7195  -74.5895 C   0  0  0  0  0  0  0  0  0  0  0  0
  -14.6771   -7.2970  -75.7709 C   0  0  0  0  0  0  0  0  0  0  0  0
  -10.2950   -8.3660  -76.5983 P   0  0  2  0  0  0  0  0  0  0  0  0
   -8.0458   -7.9377  -75.0400 P   0  0  2  0  0  0  0  0  0  0  0  0
  -16.0639   -9.9734  -76.7009 C   0  0  0  0  0  0  0  0  0  0  0  0
  -15.9655  -12.4300  -76.3609 C   0  0  0  0  0  0  0  0  0  0  0  0
  -15.4041  -11.1855  -76.1059 C   0  0  0  0  0  0  0  0  0  0  0  0
  -14.2256  -11.1178  -75.3570 C   0  0  0  0  0  0  0  0  0  0  0  0
  -13.5901   -9.9838  -75.0604 N   0  0  0  0  0  0  0  0  0  0  0  0
  -13.6718  -12.2782  -74.8813 N   0  0  0  0  0  0  0  0  0  0  0  0
  -14.2580  -13.4868  -75.1320 C   0  0  0  0  0  0  0  0  0  0  0  0
  -15.3949  -13.5843  -75.8687 N   0  0  0  0  0  0  0  0  0  0  0  0
  -10.9890   -9.5834  -76.0201 O   0  5  0  0  0  0  0  0  0  0  0  0
   -7.9091   -9.4434  -75.0698 O   0  0  0  0  0  0  0  0  0  0  0  0
  -13.9051   -8.2626  -79.4904 S   0  0  0  0  0  0  0  0  0  0  0  0
  -14.8693   -9.3770  -78.7943 C   0  0  0  0  0  0  0  0  0  0  0  0
   -9.4227   -8.8735  -77.7435 O   0  0  0  0  0  0  0  0  0  0  0  0
   -7.7535   -7.3737  -73.6645 O   0  5  0  0  0  0  0  0  0  0  0  0
  -15.1893   -9.1242  -77.4737 N   0  0  0  0  0  0  0  0  0  0  0  0
   -9.5683   -7.6042  -75.3745 O   0  0  0  0  0  0  0  0  0  0  0  0
   -7.0979   -7.3548  -76.0684 O   0  0  0  0  0  0  0  0  0  0  0  0
  -14.5875   -7.9502  -77.0926 C   0  0  1  0  0  0  0  0  0  0  0  0
  -13.8534   -7.3933  -78.1515 C   0  0  2  0  0  0  0  0  0  0  0  0
  -13.0222   -6.1472  -78.3328 C   0  0  0  0  0  0  0  0  0  0  0  0
  -11.5418   -6.4184  -78.0444 C   0  0  0  0  0  0  0  0  0  0  0  0
  -11.4254   -7.1946  -76.8583 O   0  0  0  0  0  0  0  0  0  0  0  0
  1 11  1  0  0  0  0
  3 13  1  1  0  0  0
  3 17  2  0  0  0  0
  3 20  1  0  0  0  0
  3 26  1  0  0  0  0
  4 14  1  1  0  0  0
  4 18  1  0  0  0  0
  4 21  2  0  0  0  0
  4 20  1  0  0  0  0
  5 19  1  0  0  0  0
  5  7  1  0  0  0  0
  6  7  2  0  0  0  0
  6 12  1  0  0  0  0
  7  8  1  0  0  0  0
  8  9  1  0  0  0  0
  8 10  2  0  0  0  0
 10 11  1  0  0  0  0
 11 12  2  0  0  0  0
 15 23  1  0  0  0  0
 15 16  1  0  0  0  0
 16 19  1  0  0  0  0
 19 22  1  0  0  0  0
 22  2  1  6  0  0  0
 22 23  1  0  0  0  0
 23 24  1  6  0  0  0
 24 25  1  0  0  0  0
 25 26  1  0  0  0  0
M  CHG  2  13  -1  18  -1
M  END
>  <CHROM.1>
93.03549300,82.47563234,-126.45753080,-45.30492847,-87.31532279,-44.49601331
144.32175474,-133.76762175,-12.15858684,-9.18533863,-76.42560975,-2.77671862
-0.37317522,-0.56322937

>  <Name>
ligand

>  <RI>
0

>  <Rbt.Current_Directory>
/home/itssahil/PROJECTS/Mol_Feturizer/New_Systems/rnas/2CKY

>  <Rbt.Executable>
rbdock ($Id: //depot/dev/client3/rdock/2013.1/src/exe/rbdock.cxx#4 $)

>  <Rbt.Library>
libRbt.so (2013.1, Build901 2013/11/27)

>  <Rbt.Parameter_File>
/export/apps/rDock/src/rDock_2013.1_src/data/scripts/dock_solv.prm

>  <Rbt.Receptor>
prm/blind_docking_80.prm

>  <SCORE>
-7.96375

>  <SCORE.INTER>
-12.5221

>  <SCORE.INTER.CONST>
1

>  <SCORE.INTER.POLAR>
0

>  <SCORE.INTER.ROT>
8

>  <SCORE.INTER.SOLV>
10.5147

>  <SCORE.INTER.VDW>
-20.7863

>  <SCORE.INTER.norm>
-0.48162

>  <SCORE.INTRA>
-0.454224

>  <SCORE.INTRA.DIHEDRAL>
-2.16073

>  <SCORE.INTRA.DIHEDRAL.0>
16.4846

>  <SCORE.INTRA.POLAR>
0

>  <SCORE.INTRA.POLAR.0>
0

>  <SCORE.INTRA.REPUL>
0

>  <SCORE.INTRA.REPUL.0>
0

>  <SCORE.INTRA.SOLV>
6.58242

>  <SCORE.INTRA.SOLV.lig_0>
-82.6983

>  <SCORE.INTRA.VDW>
-2.66507

>  <SCORE.INTRA.VDW.0>
-2.11466

>  <SCORE.INTRA.norm>
-0.0174702

>  <SCORE.RESTR>
5.01261

>  <SCORE.RESTR.CAVITY>
5.01261

>  <SCORE.RESTR.norm>
0.192793

>  <SCORE.SYSTEM>
0

>  <SCORE.SYSTEM.CONST>
0

>  <SCORE.SYSTEM.DIHEDRAL>
0

>  <SCORE.SYSTEM.SOLV>
0

>  <SCORE.SYSTEM.norm>
0

>  <SCORE.heavy>
26

>  <SCORE.norm>
-0.306298

>  <RMSD>
24.124

$$$$
ligand
 OpenBabel11021811423D
libRbt.so/2013.1/901 2013/11/27
 26 27  0  0  0  0  0  0  0  0999 V2000
  -13.9961  -13.6910  -73.0416 C   0  0  0  0  0  0  0  0  0  0  0  0
  -13.2547   -9.0662  -79.5173 C   0  0  0  0  0  0  0  0  0  0  0  0
   -8.9163   -7.9583  -77.0269 P   0  0  2  0  0  0  0  0  0  0  0  0
  -10.4024   -9.3319  -75.1361 P   0  0  2  0  0  0  0  0  0  0  0  0
  -15.3098  -10.2625  -77.4444 C   0  0  0  0  0  0  0  0  0  0  0  0
  -13.8383  -10.9854  -75.5809 C   0  0  0  0  0  0  0  0  0  0  0  0
  -14.9977  -11.2027  -76.3142 C   0  0  0  0  0  0  0  0  0  0  0  0
  -15.8479  -12.2468  -75.9383 C   0  0  0  0  0  0  0  0  0  0  0  0
  -16.9915  -12.5419  -76.5572 N   0  0  0  0  0  0  0  0  0  0  0  0
  -15.5022  -13.0352  -74.8714 N   0  0  0  0  0  0  0  0  0  0  0  0
  -14.3448  -12.8092  -74.1811 C   0  0  0  0  0  0  0  0  0  0  0  0
  -13.5070  -11.7935  -74.5145 N   0  0  0  0  0  0  0  0  0  0  0  0
   -8.3011   -8.2470  -78.3820 O   0  5  0  0  0  0  0  0  0  0  0  0
  -10.9987  -10.7130  -74.9821 O   0  0  0  0  0  0  0  0  0  0  0  0
  -13.9022   -6.7492  -76.4229 S   0  0  0  0  0  0  0  0  0  0  0  0
  -14.7935   -8.1097  -76.3202 C   0  0  0  0  0  0  0  0  0  0  0  0
   -7.8155   -7.3205  -76.1836 O   0  0  0  0  0  0  0  0  0  0  0  0
  -11.4736   -8.2680  -75.2643 O   0  5  0  0  0  0  0  0  0  0  0  0
  -14.6371   -8.9873  -77.3764 N   0  0  0  0  0  0  0  0  0  0  0  0
   -9.5730   -9.3347  -76.4974 O   0  0  0  0  0  0  0  0  0  0  0  0
   -9.5204   -9.0593  -73.9346 O   0  0  0  0  0  0  0  0  0  0  0  0
  -13.7304   -8.4550  -78.2596 C   0  0  1  0  0  0  0  0  0  0  0  0
  -13.2611   -7.2104  -77.8111 C   0  0  2  0  0  0  0  0  0  0  0  0
  -12.2748   -6.1932  -78.3300 C   0  0  0  0  0  0  0  0  0  0  0  0
  -10.8867   -6.8123  -78.5247 C   0  0  0  0  0  0  0  0  0  0  0  0
  -10.3524   -7.1830  -77.2598 O   0  0  0  0  0  0  0  0  0  0  0  0
  1 11  1  0  0  0  0
  3 13  1  6  0  0  0
  3 17  2  0  0  0  0
  3 20  1  0  0  0  0
  3 26  1  0  0  0  0
  4 14  1  1  0  0  0
  4 18  1  0  0  0  0
  4 21  2  0  0  0  0
  4 20  1  0  0  0  0
  5 19  1  0  0  0  0
  5  7  1  0  0  0  0
  6  7  2  0  0  0  0
  6 12  1  0  0  0  0
  7  8  1  0  0  0  0
  8  9  1  0  0  0  0
  8 10  2  0  0  0  0
 10 11  1  0  0  0  0
 11 12  2  0  0  0  0
 15 23  1  0  0  0  0
 15 16  1  0  0  0  0
 16 19  1  0  0  0  0
 19 22  1  0  0  0  0
 22  2  1  1  0  0  0
 22 23  1  0  0  0  0
 23 24  1  1  0  0  0
 24 25  1  0  0  0  0
 25 26  1  0  0  0  0
M  CHG  2  13  -1  18  -1
M  END
>  <CHROM.1>
-175.32754738,-59.80766886,-20.12224310,174.44565002,121.86170645,-66.03288765
176.46339025,-2.04329583,-12.29418571,-9.28794363,-76.34138514,-2.49324831
-0.25864440,-0.67570851

>  <Name>
ligand

>  <RI>
0

>  <Rbt.Current_Directory>
/home/itssahil/PROJECTS/Mol_Feturizer/New_Systems/rnas/2CKY

>  <Rbt.Executable>
rbdock ($Id: //depot/dev/client3/rdock/2013.1/src/exe/rbdock.cxx#4 $)

>  <Rbt.Library>
libRbt.so (2013.1, Build901 2013/11/27)

>  <Rbt.Parameter_File>
/export/apps/rDock/src/rDock_2013.1_src/data/scripts/dock_solv.prm

>  <Rbt.Receptor>
prm/blind_docking_80.prm

>  <SCORE>
-9.92701

>  <SCORE.INTER>
-6.92561

>  <SCORE.INTER.CONST>
1

>  <SCORE.INTER.POLAR>
0

>  <SCORE.INTER.ROT>
8

>  <SCORE.INTER.SOLV>
10.2499

>  <SCORE.INTER.VDW>
-16.967

>  <SCORE.INTER.norm>
-0.26637

>  <SCORE.INTRA>
-6.0793

>  <SCORE.INTRA.DIHEDRAL>
-9.16086

>  <SCORE.INTRA.DIHEDRAL.0>
16.4846

>  <SCORE.INTRA.POLAR>
0

>  <SCORE.INTRA.POLAR.0>
0

>  <SCORE.INTRA.REPUL>
0

>  <SCORE.INTRA.REPUL.0>
0

>  <SCORE.INTRA.SOLV>
2.54573

>  <SCORE.INTRA.SOLV.lig_0>
-82.6983

>  <SCORE.INTRA.VDW>
-2.77174

>  <SCORE.INTRA.VDW.0>
-2.11466

>  <SCORE.INTRA.norm>
-0.233819

>  <SCORE.RESTR>
3.07791

>  <SCORE.RESTR.CAVITY>
3.07791

>  <SCORE.RESTR.norm>
0.118381

>  <SCORE.SYSTEM>
0

>  <SCORE.SYSTEM.CONST>
0

>  <SCORE.SYSTEM.DIHEDRAL>
0

>  <SCORE.SYSTEM.SOLV>
0

>  <SCORE.SYSTEM.norm>
0

>  <SCORE.heavy>
26

>  <SCORE.norm>
-0.381808

>  <RMSD>
24.131

$$$$
ligand
 OpenBabel11021811423D
libRbt.so/2013.1/901 2013/11/27
 26 27  0  0  0  0  0  0  0  0999 V2000
  -13.2897  -12.0920  -73.9982 C   0  0  0  0  0  0  0  0  0  0  0  0
  -11.5224   -8.5473  -78.0806 C   0  0  0  0  0  0  0  0  0  0  0  0
   -9.0764   -6.2065  -75.1426 P   0  0  2  0  0  0  0  0  0  0  0  0
   -9.2889   -8.9376  -75.5505 P   0  0  2  0  0  0  0  0  0  0  0  0
  -14.0150   -7.1262  -76.7695 C   0  0  0  0  0  0  0  0  0  0  0  0
  -13.0708   -8.5045  -74.9340 C   0  0  0  0  0  0  0  0  0  0  0  0
  -13.8355   -8.4559  -76.0924 C   0  0  0  0  0  0  0  0  0  0  0  0
  -14.4472   -9.6279  -76.5466 C   0  0  0  0  0  0  0  0  0  0  0  0
  -15.2128   -9.7002  -77.6358 N   0  0  0  0  0  0  0  0  0  0  0  0
  -14.2579  -10.7916  -75.8469 N   0  0  0  0  0  0  0  0  0  0  0  0
  -13.4838  -10.8124  -74.7211 C   0  0  0  0  0  0  0  0  0  0  0  0
  -12.8892   -9.6865  -74.2484 N   0  0  0  0  0  0  0  0  0  0  0  0
   -8.2105   -6.4960  -73.9325 O   0  5  0  0  0  0  0  0  0  0  0  0
   -8.2448   -9.0309  -74.4606 O   0  0  0  0  0  0  0  0  0  0  0  0
  -11.0805   -4.6775  -77.6419 S   0  0  0  0  0  0  0  0  0  0  0  0
  -12.5431   -5.1548  -77.1042 C   0  0  0  0  0  0  0  0  0  0  0  0
   -9.7849   -4.8851  -74.8564 O   0  0  0  0  0  0  0  0  0  0  0  0
   -8.6668   -8.9904  -76.9310 O   0  5  0  0  0  0  0  0  0  0  0  0
  -12.7934   -6.5084  -77.2272 N   0  0  0  0  0  0  0  0  0  0  0  0
   -9.9885   -7.5131  -75.4009 O   0  0  0  0  0  0  0  0  0  0  0  0
  -10.2722  -10.0752  -75.3643 O   0  0  0  0  0  0  0  0  0  0  0  0
  -11.6933   -7.1098  -77.7870 C   0  0  1  0  0  0  0  0  0  0  0  0
  -10.6839   -6.1701  -78.0489 C   0  0  2  0  0  0  0  0  0  0  0  0
   -9.2901   -6.2351  -78.6231 C   0  0  0  0  0  0  0  0  0  0  0  0
   -8.2671   -5.5996  -77.6755 C   0  0  0  0  0  0  0  0  0  0  0  0
   -8.1573   -6.3907  -76.4986 O   0  0  0  0  0  0  0  0  0  0  0  0
  1 11  1  0  0  0  0
  3 13  1  1  0  0  0
  3 17  2  0  0  0  0
  3 20  1  0  0  0  0
  3 26  1  0  0  0  0
  4 14  1  1  0  0  0
  4 18  1  0  0  0  0
  4 21  2  0  0  0  0
  4 20  1  0  0  0  0
  5 19  1  0  0  0  0
  5  7  1  0  0  0  0
  6  7  2  0  0  0  0
  6 12  1  0  0  0  0
  7  8  1  0  0  0  0
  8  9  1  0  0  0  0
  8 10  2  0  0  0  0
 10 11  1  0  0  0  0
 11 12  2  0  0  0  0
 15 23  1  0  0  0  0
 15 16  1  0  0  0  0
 16 19  1  0  0  0  0
 19 22  1  0  0  0  0
 22  2  1  1  0  0  0
 22 23  1  0  0  0  0
 23 24  1  1  0  0  0
 24 25  1  0  0  0  0
 25 26  1  0  0  0  0
M  CHG  2  13  -1  18  -1
M  END
>  <CHROM.1>
-53.81205787,-139.17104970,61.20800785,44.19213211,53.74528699,67.19627317
-89.36137137,-144.12546986,-11.00694795,-7.73176922,-76.15256536,-2.47245123
-0.32212184,-0.54975290

>  <Name>
ligand

>  <RI>
0

>  <Rbt.Current_Directory>
/home/itssahil/PROJECTS/Mol_Feturizer/New_Systems/rnas/2CKY

>  <Rbt.Executable>
rbdock ($Id: //depot/dev/client3/rdock/2013.1/src/exe/rbdock.cxx#4 $)

>  <Rbt.Library>
libRbt.so (2013.1, Build901 2013/11/27)

>  <Rbt.Parameter_File>
/export/apps/rDock/src/rDock_2013.1_src/data/scripts/dock_solv.prm

>  <Rbt.Receptor>
prm/blind_docking_80.prm

>  <SCORE>
-10.9759

>  <SCORE.INTER>
-8.91567

>  <SCORE.INTER.CONST>
1

>  <SCORE.INTER.POLAR>
0

>  <SCORE.INTER.ROT>
8

>  <SCORE.INTER.SOLV>
20.378

>  <SCORE.INTER.VDW>
-21.6698

>  <SCORE.INTER.norm>
-0.34291

>  <SCORE.INTRA>
-2.8326

>  <SCORE.INTRA.DIHEDRAL>
-5.33309

>  <SCORE.INTRA.DIHEDRAL.0>
16.4846

>  <SCORE.INTRA.POLAR>
0

>  <SCORE.INTRA.POLAR.0>
0

>  <SCORE.INTRA.REPUL>
0

>  <SCORE.INTRA.REPUL.0>
0

>  <SCORE.INTRA.SOLV>
7.50144

>  <SCORE.INTRA.SOLV.lig_0>
-82.6983

>  <SCORE.INTRA.VDW>
-3.91678

>  <SCORE.INTRA.VDW.0>
-2.11466

>  <SCORE.INTRA.norm>
-0.108946

>  <SCORE.RESTR>
0.77232

>  <SCORE.RESTR.CAVITY>
0.77232

>  <SCORE.RESTR.norm>
0.0297046

>  <SCORE.SYSTEM>
0

>  <SCORE.SYSTEM.CONST>
0

>  <SCORE.SYSTEM.DIHEDRAL>
0

>  <SCORE.SYSTEM.SOLV>
0

>  <SCORE.SYSTEM.norm>
0

>  <SCORE.heavy>
26

>  <SCORE.norm>
-0.422152

>  <RMSD>
24.132

$$$$
ligand
 OpenBabel11021811423D
libRbt.so/2013.1/901 2013/11/27
 26 27  0  0  0  0  0  0  0  0999 V2000
  -12.9997  -13.8757  -73.9263 C   0  0  0  0  0  0  0  0  0  0  0  0
  -14.4476   -7.2965  -75.7033 C   0  0  0  0  0  0  0  0  0  0  0  0
   -9.4235   -7.9608  -77.5261 P   0  0  2  0  0  0  0  0  0  0  0  0
   -9.8069   -8.7866  -74.9105 P   0  0  2  0  0  0  0  0  0  0  0  0
  -15.7976   -9.8716  -76.9271 C   0  0  0  0  0  0  0  0  0  0  0  0
  -13.8556  -10.6766  -75.6076 C   0  0  0  0  0  0  0  0  0  0  0  0
  -15.0934  -10.9618  -76.1692 C   0  0  0  0  0  0  0  0  0  0  0  0
  -15.6535  -12.2256  -75.9611 C   0  0  0  0  0  0  0  0  0  0  0  0
  -16.8382  -12.6083  -76.4385 N   0  0  0  0  0  0  0  0  0  0  0  0
  -14.9563  -13.1498  -75.2268 N   0  0  0  0  0  0  0  0  0  0  0  0
  -13.7312  -12.8466  -74.7030 C   0  0  0  0  0  0  0  0  0  0  0  0
  -13.1690  -11.6224  -74.8767 N   0  0  0  0  0  0  0  0  0  0  0  0
   -8.8936   -8.8735  -78.6144 O   0  5  0  0  0  0  0  0  0  0  0  0
   -8.4163   -9.3623  -74.7639 O   0  0  0  0  0  0  0  0  0  0  0  0
  -13.6319   -7.8526  -79.4965 S   0  0  0  0  0  0  0  0  0  0  0  0
  -14.5905   -9.0440  -78.9329 C   0  0  0  0  0  0  0  0  0  0  0  0
   -8.2328   -7.1404  -77.0374 O   0  0  0  0  0  0  0  0  0  0  0  0
  -10.8323   -9.5892  -74.1358 O   0  5  0  0  0  0  0  0  0  0  0  0
  -14.9250   -8.9366  -77.5962 N   0  0  0  0  0  0  0  0  0  0  0  0
  -10.1914   -8.8918  -76.4539 O   0  0  0  0  0  0  0  0  0  0  0  0
   -9.7789   -7.3502  -74.4292 O   0  0  0  0  0  0  0  0  0  0  0  0
  -14.3392   -7.8042  -77.0861 C   0  0  1  0  0  0  0  0  0  0  0  0
  -13.6016   -7.1306  -78.0723 C   0  0  2  0  0  0  0  0  0  0  0  0
  -12.7820   -5.8643  -78.1113 C   0  0  0  0  0  0  0  0  0  0  0  0
  -11.3967   -6.0782  -77.4921 C   0  0  0  0  0  0  0  0  0  0  0  0
  -10.7841   -7.2166  -78.0851 O   0  0  0  0  0  0  0  0  0  0  0  0
  1 11  1  0  0  0  0
  3 13  1  6  0  0  0
  3 17  2  0  0  0  0
  3 20  1  0  0  0  0
  3 26  1  0  0  0  0
  4 14  1  1  0  0  0
  4 18  1  0  0  0  0
  4 21  2  0  0  0  0
  4 20  1  0  0  0  0
  5 19  1  0  0  0  0
  5  7  1  0  0  0  0
  6  7  2  0  0  0  0
  6 12  1  0  0  0  0
  7  8  1  0  0  0  0
  8  9  1  0  0  0  0
  8 10  2  0  0  0  0
 10 11  1  0  0  0  0
 11 12  2  0  0  0  0
 15 23  1  0  0  0  0
 15 16  1  0  0  0  0
 16 19  1  0  0  0  0
 19 22  1  0  0  0  0
 22  2  1  6  0  0  0
 22 23  1  0  0  0  0
 23 24  1  6  0  0  0
 24 25  1  0  0  0  0
 25 26  1  0  0  0  0
M  CHG  2  13  -1  18  -1
M  END
>  <CHROM.1>
127.38074185,96.71877506,31.33241945,-69.21468959,-102.06836092,51.42611337
-168.12447678,-165.04229206,-12.26621893,-9.15068223,-76.55997076,-2.55620911
-0.33053926,-0.68945229

>  <Name>
ligand

>  <RI>
0

>  <Rbt.Current_Directory>
/home/itssahil/PROJECTS/Mol_Feturizer/New_Systems/rnas/2CKY

>  <Rbt.Executable>
rbdock ($Id: //depot/dev/client3/rdock/2013.1/src/exe/rbdock.cxx#4 $)

>  <Rbt.Library>
libRbt.so (2013.1, Build901 2013/11/27)

>  <Rbt.Parameter_File>
/export/apps/rDock/src/rDock_2013.1_src/data/scripts/dock_solv.prm

>  <Rbt.Receptor>
prm/blind_docking_80.prm

>  <SCORE>
-16.0731

>  <SCORE.INTER>
-12.4898

>  <SCORE.INTER.CONST>
1

>  <SCORE.INTER.POLAR>
0

>  <SCORE.INTER.ROT>
8

>  <SCORE.INTER.SOLV>
11.0304

>  <SCORE.INTER.VDW>
-20.9366

>  <SCORE.INTER.norm>
-0.480375

>  <SCORE.INTRA>
-6.396

>  <SCORE.INTRA.DIHEDRAL>
-7.80488

>  <SCORE.INTRA.DIHEDRAL.0>
16.4846

>  <SCORE.INTRA.POLAR>
0

>  <SCORE.INTRA.POLAR.0>
0

>  <SCORE.INTRA.REPUL>
0

>  <SCORE.INTRA.REPUL.0>
0

>  <SCORE.INTRA.SOLV>
0.762121

>  <SCORE.INTRA.SOLV.lig_0>
-82.6983

>  <SCORE.INTRA.VDW>
-2.87462

>  <SCORE.INTRA.VDW.0>
-2.11466

>  <SCORE.INTRA.norm>
-0.246

>  <SCORE.RESTR>
2.81264

>  <SCORE.RESTR.CAVITY>
2.81264

>  <SCORE.RESTR.norm>
0.108179

>  <SCORE.SYSTEM>
0

>  <SCORE.SYSTEM.CONST>
0

>  <SCORE.SYSTEM.DIHEDRAL>
0

>  <SCORE.SYSTEM.SOLV>
0

>  <SCORE.SYSTEM.norm>
0

>  <SCORE.heavy>
26

>  <SCORE.norm>
-0.618196

>  <RMSD>
24.133

$$$$
ligand
 OpenBabel11021811423D
libRbt.so/2013.1/901 2013/11/27
 26 27  0  0  0  0  0  0  0  0999 V2000
  -13.0049  -13.8687  -74.0305 C   0  0  0  0  0  0  0  0  0  0  0  0
  -14.3428   -7.3608  -75.6764 C   0  0  0  0  0  0  0  0  0  0  0  0
   -9.4573   -7.9998  -77.3785 P   0  0  2  0  0  0  0  0  0  0  0  0
   -9.6663   -8.8930  -74.7652 P   0  0  2  0  0  0  0  0  0  0  0  0
  -15.8413   -9.8292  -76.9463 C   0  0  0  0  0  0  0  0  0  0  0  0
  -13.8912  -10.6435  -75.6446 C   0  0  0  0  0  0  0  0  0  0  0  0
  -15.1267  -10.9284  -76.2116 C   0  0  0  0  0  0  0  0  0  0  0  0
  -15.6750  -12.2013  -76.0295 C   0  0  0  0  0  0  0  0  0  0  0  0
  -16.8564  -12.5849  -76.5143 N   0  0  0  0  0  0  0  0  0  0  0  0
  -14.9689  -13.1341  -75.3148 N   0  0  0  0  0  0  0  0  0  0  0  0
  -13.7463  -12.8305  -74.7853 C   0  0  0  0  0  0  0  0  0  0  0  0
  -13.1955  -11.5979  -74.9338 N   0  0  0  0  0  0  0  0  0  0  0  0
   -9.2150   -8.6859  -78.7084 O   0  5  0  0  0  0  0  0  0  0  0  0
   -8.3156   -9.4769  -74.4171 O   0  0  0  0  0  0  0  0  0  0  0  0
  -13.7599   -7.7451  -79.5333 S   0  0  0  0  0  0  0  0  0  0  0  0
  -14.7230   -8.9354  -78.9750 C   0  0  0  0  0  0  0  0  0  0  0  0
   -8.1986   -7.1902  -77.0784 O   0  0  0  0  0  0  0  0  0  0  0  0
  -10.7893   -9.5966  -74.0308 O   0  5  0  0  0  0  0  0  0  0  0  0
  -14.9782   -8.8869  -77.6175 N   0  0  0  0  0  0  0  0  0  0  0  0
   -9.8909   -9.1423  -76.3236 O   0  0  0  0  0  0  0  0  0  0  0  0
   -9.6475   -7.4169  -74.4235 O   0  0  0  0  0  0  0  0  0  0  0  0
  -14.3286   -7.7998  -77.0866 C   0  0  1  0  0  0  0  0  0  0  0  0
  -13.6263   -7.0983  -78.0791 C   0  0  2  0  0  0  0  0  0  0  0  0
  -12.7701   -5.8562  -78.1027 C   0  0  0  0  0  0  0  0  0  0  0  0
  -11.2907   -6.2033  -78.3006 C   0  0  0  0  0  0  0  0  0  0  0  0
  -10.9342   -7.2693  -77.4290 O   0  0  0  0  0  0  0  0  0  0  0  0
  1 11  1  0  0  0  0
  3 13  1  6  0  0  0
  3 17  2  0  0  0  0
  3 20  1  0  0  0  0
  3 26  1  0  0  0  0
  4 14  1  1  0  0  0
  4 18  1  0  0  0  0
  4 21  2  0  0  0  0
  4 20  1  0  0  0  0
  5 19  1  0  0  0  0
  5  7  1  0  0  0  0
  6  7  2  0  0  0  0
  6 12  1  0  0  0  0
  7  8  1  0  0  0  0
  8  9  1  0  0  0  0
  8 10  2  0  0  0  0
 10 11  1  0  0  0  0
 11 12  2  0  0  0  0
 15 23  1  0  0  0  0
 15 16  1  0  0  0  0
 16 19  1  0  0  0  0
 19 22  1  0  0  0  0
 22  2  1  6  0  0  0
 22 23  1  0  0  0  0
 23 24  1  6  0  0  0
 24 25  1  0  0  0  0
 25 26  1  0  0  0  0
M  CHG  2  13  -1  18  -1
M  END
>  <CHROM.1>
156.04449470,100.43778984,32.45922901,-92.83788282,-72.41475389,-46.46683510
176.65313852,-63.94707633,-12.26770019,-9.16027072,-76.54507158,-2.62017967
-0.34447444,-0.69437192

>  <Name>
ligand

>  <RI>
0

>  <Rbt.Current_Directory>
/home/itssahil/PROJECTS/Mol_Feturizer/New_Systems/rnas/2CKY

>  <Rbt.Executable>
rbdock ($Id: //depot/dev/client3/rdock/2013.1/src/exe/rbdock.cxx#4 $)

>  <Rbt.Library>
libRbt.so (2013.1, Build901 2013/11/27)

>  <Rbt.Parameter_File>
/export/apps/rDock/src/rDock_2013.1_src/data/scripts/dock_solv.prm

>  <Rbt.Receptor>
prm/blind_docking_80.prm

>  <SCORE>
-15.8534

>  <SCORE.INTER>
-12.905

>  <SCORE.INTER.CONST>
1

>  <SCORE.INTER.POLAR>
0

>  <SCORE.INTER.ROT>
8

>  <SCORE.INTER.SOLV>
10.4688

>  <SCORE.INTER.VDW>
-21.0263

>  <SCORE.INTER.norm>
-0.496348

>  <SCORE.INTRA>
-5.92529

>  <SCORE.INTRA.DIHEDRAL>
-8.24794

>  <SCORE.INTRA.DIHEDRAL.0>
16.4846

>  <SCORE.INTRA.POLAR>
0

>  <SCORE.INTRA.POLAR.0>
0

>  <SCORE.INTRA.REPUL>
0

>  <SCORE.INTRA.REPUL.0>
0

>  <SCORE.INTRA.SOLV>
0.519843

>  <SCORE.INTRA.SOLV.lig_0>
-82.6983

>  <SCORE.INTRA.VDW>
-2.06125

>  <SCORE.INTRA.VDW.0>
-2.11466

>  <SCORE.INTRA.norm>
-0.227896

>  <SCORE.RESTR>
2.97693

>  <SCORE.RESTR.CAVITY>
2.97693

>  <SCORE.RESTR.norm>
0.114497

>  <SCORE.SYSTEM>
0

>  <SCORE.SYSTEM.CONST>
0

>  <SCORE.SYSTEM.DIHEDRAL>
0

>  <SCORE.SYSTEM.SOLV>
0

>  <SCORE.SYSTEM.norm>
0

>  <SCORE.heavy>
26

>  <SCORE.norm>
-0.609746

>  <RMSD>
24.146

$$$$
ligand
 OpenBabel11021811423D
libRbt.so/2013.1/901 2013/11/27
 26 27  0  0  0  0  0  0  0  0999 V2000
  -13.6545  -13.9396  -73.5157 C   0  0  0  0  0  0  0  0  0  0  0  0
  -13.3986   -9.3527  -79.4352 C   0  0  0  0  0  0  0  0  0  0  0  0
   -9.1774   -6.7374  -76.8615 P   0  0  2  0  0  0  0  0  0  0  0  0
   -9.8293   -8.7168  -75.0375 P   0  0  2  0  0  0  0  0  0  0  0  0
  -15.5709  -10.0372  -77.2525 C   0  0  0  0  0  0  0  0  0  0  0  0
  -13.9006  -10.8961  -75.6299 C   0  0  0  0  0  0  0  0  0  0  0  0
  -15.0997  -11.1003  -76.3004 C   0  0  0  0  0  0  0  0  0  0  0  0
  -15.8403  -12.2529  -76.0223 C   0  0  0  0  0  0  0  0  0  0  0  0
  -17.0086  -12.5488  -76.5926 N   0  0  0  0  0  0  0  0  0  0  0  0
  -15.3516  -13.1545  -75.1125 N   0  0  0  0  0  0  0  0  0  0  0  0
  -14.1587  -12.9358  -74.4830 C   0  0  0  0  0  0  0  0  0  0  0  0
  -13.4250  -11.8182  -74.7224 N   0  0  0  0  0  0  0  0  0  0  0  0
   -7.6710   -6.5780  -76.8009 O   0  5  0  0  0  0  0  0  0  0  0  0
   -8.7082   -9.6293  -74.5934 O   0  0  0  0  0  0  0  0  0  0  0  0
  -13.6892   -6.6602  -76.6017 S   0  0  0  0  0  0  0  0  0  0  0  0
  -14.7548   -7.8692  -76.3588 C   0  0  0  0  0  0  0  0  0  0  0  0
   -9.7586   -5.6728  -75.9348 O   0  0  0  0  0  0  0  0  0  0  0  0
  -11.1645   -9.4327  -75.0525 O   0  5  0  0  0  0  0  0  0  0  0  0
  -14.7313   -8.8649  -77.3170 N   0  0  0  0  0  0  0  0  0  0  0  0
   -9.5075   -8.2840  -76.5375 O   0  0  0  0  0  0  0  0  0  0  0  0
   -9.8721   -7.5270  -74.1002 O   0  0  0  0  0  0  0  0  0  0  0  0
  -13.7719   -8.5552  -78.2493 C   0  0  1  0  0  0  0  0  0  0  0  0
  -13.1333   -7.3459  -77.9327 C   0  0  2  0  0  0  0  0  0  0  0  0
  -12.0252   -6.5314  -78.5533 C   0  0  0  0  0  0  0  0  0  0  0  0
  -10.8278   -7.4124  -78.9254 C   0  0  0  0  0  0  0  0  0  0  0  0
   -9.6314   -6.8121  -78.4445 O   0  0  0  0  0  0  0  0  0  0  0  0
  1 11  1  0  0  0  0
  3 13  1  1  0  0  0
  3 17  2  0  0  0  0
  3 20  1  0  0  0  0
  3 26  1  0  0  0  0
  4 14  1  1  0  0  0
  4 18  1  0  0  0  0
  4 21  2  0  0  0  0
  4 20  1  0  0  0  0
  5 19  1  0  0  0  0
  5  7  1  0  0  0  0
  6  7  2  0  0  0  0
  6 12  1  0  0  0  0
  7  8  1  0  0  0  0
  8  9  1  0  0  0  0
  8 10  2  0  0  0  0
 10 11  1  0  0  0  0
 11 12  2  0  0  0  0
 15 23  1  0  0  0  0
 15 16  1  0  0  0  0
 16 19  1  0  0  0  0
 19 22  1  0  0  0  0
 22  2  1  1  0  0  0
 22 23  1  0  0  0  0
 23 24  1  1  0  0  0
 24 25  1  0  0  0  0
 25 26  1  0  0  0  0
M  CHG  2  13  -1  18  -1
M  END
>  <CHROM.1>
93.19416806,-78.39345053,-2.80805759,-114.28385778,132.70973731,-131.80615680
72.22754022,156.50656297,-12.17172899,-8.95066281,-76.35496760,-2.50622636
-0.39439447,-0.66811499

>  <Name>
ligand

>  <RI>
0

>  <Rbt.Current_Directory>
/home/itssahil/PROJECTS/Mol_Feturizer/New_Systems/rnas/2CKY

>  <Rbt.Executable>
rbdock ($Id: //depot/dev/client3/rdock/2013.1/src/exe/rbdock.cxx#4 $)

>  <Rbt.Library>
libRbt.so (2013.1, Build901 2013/11/27)

>  <Rbt.Parameter_File>
/export/apps/rDock/src/rDock_2013.1_src/data/scripts/dock_solv.prm

>  <Rbt.Receptor>
prm/blind_docking_80.prm

>  <SCORE>
-4.24719

>  <SCORE.INTER>
-5.50025

>  <SCORE.INTER.CONST>
1

>  <SCORE.INTER.POLAR>
0

>  <SCORE.INTER.ROT>
8

>  <SCORE.INTER.SOLV>
13.5997

>  <SCORE.INTER.VDW>
-17.1334

>  <SCORE.INTER.norm>
-0.211548

>  <SCORE.INTRA>
-1.64484

>  <SCORE.INTRA.DIHEDRAL>
-2.01473

>  <SCORE.INTRA.DIHEDRAL.0>
16.4846

>  <SCORE.INTRA.POLAR>
0

>  <SCORE.INTRA.POLAR.0>
0

>  <SCORE.INTRA.REPUL>
0

>  <SCORE.INTRA.REPUL.0>
0

>  <SCORE.INTRA.SOLV>
2.53836

>  <SCORE.INTRA.SOLV.lig_0>
-82.6983

>  <SCORE.INTRA.VDW>
-1.90665

>  <SCORE.INTRA.VDW.0>
-2.11466

>  <SCORE.INTRA.norm>
-0.063263

>  <SCORE.RESTR>
2.8979

>  <SCORE.RESTR.CAVITY>
2.8979

>  <SCORE.RESTR.norm>
0.111458

>  <SCORE.SYSTEM>
0

>  <SCORE.SYSTEM.CONST>
0

>  <SCORE.SYSTEM.DIHEDRAL>
0

>  <SCORE.SYSTEM.SOLV>
0

>  <SCORE.SYSTEM.norm>
0

>  <SCORE.heavy>
26

>  <SCORE.norm>
-0.163353

>  <RMSD>
24.152

$$$$
ligand
 OpenBabel11021811423D
libRbt.so/2013.1/901 2013/11/27
 26 27  0  0  0  0  0  0  0  0999 V2000
  -12.9877  -13.9414  -73.9666 C   0  0  0  0  0  0  0  0  0  0  0  0
  -14.4543   -7.2528  -75.7119 C   0  0  0  0  0  0  0  0  0  0  0  0
   -9.1440   -7.3963  -77.3432 P   0  0  2  0  0  0  0  0  0  0  0  0
  -10.1481   -8.8433  -75.2058 P   0  0  2  0  0  0  0  0  0  0  0  0
  -15.7682   -9.8680  -76.8892 C   0  0  0  0  0  0  0  0  0  0  0  0
  -13.8351  -10.7029  -75.5752 C   0  0  0  0  0  0  0  0  0  0  0  0
  -15.0683  -10.9757  -76.1531 C   0  0  0  0  0  0  0  0  0  0  0  0
  -15.6282  -12.2449  -75.9804 C   0  0  0  0  0  0  0  0  0  0  0  0
  -16.8087  -12.6171  -76.4761 N   0  0  0  0  0  0  0  0  0  0  0  0
  -14.9354  -13.1860  -75.2637 N   0  0  0  0  0  0  0  0  0  0  0  0
  -13.7146  -12.8943  -74.7233 C   0  0  0  0  0  0  0  0  0  0  0  0
  -13.1529  -11.6656  -74.8626 N   0  0  0  0  0  0  0  0  0  0  0  0
   -8.3145   -7.6892  -78.5777 O   0  5  0  0  0  0  0  0  0  0  0  0
   -9.8006   -7.5258  -74.5499 O   0  0  0  0  0  0  0  0  0  0  0  0
  -13.5805   -7.8980  -79.4780 S   0  0  0  0  0  0  0  0  0  0  0  0
  -14.5385   -9.0820  -78.8980 C   0  0  0  0  0  0  0  0  0  0  0  0
   -8.3417   -6.3962  -76.5150 O   0  0  0  0  0  0  0  0  0  0  0  0
   -9.5339  -10.0169  -74.4701 O   0  5  0  0  0  0  0  0  0  0  0  0
  -14.8929   -8.9435  -77.5693 N   0  0  0  0  0  0  0  0  0  0  0  0
   -9.5117   -8.8153  -76.6670 O   0  0  0  0  0  0  0  0  0  0  0  0
  -11.6575   -8.9696  -75.2464 O   0  0  0  0  0  0  0  0  0  0  0  0
  -14.3225   -7.7943  -77.0798 C   0  0  1  0  0  0  0  0  0  0  0  0
  -13.5757   -7.1402  -78.0722 C   0  0  2  0  0  0  0  0  0  0  0  0
  -12.7647   -5.8692  -78.1316 C   0  0  0  0  0  0  0  0  0  0  0  0
  -11.4801   -5.9890  -77.3048 C   0  0  0  0  0  0  0  0  0  0  0  0
  -10.6839   -7.0496  -77.8188 O   0  0  0  0  0  0  0  0  0  0  0  0
  1 11  1  0  0  0  0
  3 13  1  6  0  0  0
  3 17  2  0  0  0  0
  3 20  1  0  0  0  0
  3 26  1  0  0  0  0
  4 14  1  1  0  0  0
  4 18  1  0  0  0  0
  4 21  2  0  0  0  0
  4 20  1  0  0  0  0
  5 19  1  0  0  0  0
  5  7  1  0  0  0  0
  6  7  2  0  0  0  0
  6 12  1  0  0  0  0
  7  8  1  0  0  0  0
  8  9  1  0  0  0  0
  8 10  2  0  0  0  0
 10 11  1  0  0  0  0
 11 12  2  0  0  0  0
 15 23  1  0  0  0  0
 15 16  1  0  0  0  0
 16 19  1  0  0  0  0
 19 22  1  0  0  0  0
 22  2  1  6  0  0  0
 22 23  1  0  0  0  0
 23 24  1  6  0  0  0
 24 25  1  0  0  0  0
 25 26  1  0  0  0  0
M  CHG  2  13  -1  18  -1
M  END
>  <CHROM.1>
168.74941086,93.67532523,33.49713993,-20.91626783,-110.75458506,60.40723248
172.00521057,-136.46837368,-12.28668016,-9.04670944,-76.57389214,-2.46909053
-0.33580430,-0.65327285

>  <Name>
ligand

>  <RI>
0

>  <Rbt.Current_Directory>
/home/itssahil/PROJECTS/Mol_Feturizer/New_Systems/rnas/2CKY

>  <Rbt.Executable>
rbdock ($Id: //depot/dev/client3/rdock/2013.1/src/exe/rbdock.cxx#4 $)

>  <Rbt.Library>
libRbt.so (2013.1, Build901 2013/11/27)

>  <Rbt.Parameter_File>
/export/apps/rDock/src/rDock_2013.1_src/data/scripts/dock_solv.prm

>  <Rbt.Receptor>
prm/blind_docking_80.prm

>  <SCORE>
-14.4579

>  <SCORE.INTER>
-11.3373

>  <SCORE.INTER.CONST>
1

>  <SCORE.INTER.POLAR>
0

>  <SCORE.INTER.ROT>
8

>  <SCORE.INTER.SOLV>
12.1332

>  <SCORE.INTER.VDW>
-20.536

>  <SCORE.INTER.norm>
-0.436052

>  <SCORE.INTRA>
-5.94694

>  <SCORE.INTRA.DIHEDRAL>
-7.40775

>  <SCORE.INTRA.DIHEDRAL.0>
16.4846

>  <SCORE.INTRA.POLAR>
0

>  <SCORE.INTRA.POLAR.0>
0

>  <SCORE.INTRA.REPUL>
0

>  <SCORE.INTRA.REPUL.0>
0

>  <SCORE.INTRA.SOLV>
1.20999

>  <SCORE.INTRA.SOLV.lig_0>
-82.6983

>  <SCORE.INTRA.VDW>
-2.84806

>  <SCORE.INTRA.VDW.0>
-2.11466

>  <SCORE.INTRA.norm>
-0.228728

>  <SCORE.RESTR>
2.82643

>  <SCORE.RESTR.CAVITY>
2.82643

>  <SCORE.RESTR.norm>
0.108709

>  <SCORE.SYSTEM>
0

>  <SCORE.SYSTEM.CONST>
0

>  <SCORE.SYSTEM.DIHEDRAL>
0

>  <SCORE.SYSTEM.SOLV>
0

>  <SCORE.SYSTEM.norm>
0

>  <SCORE.heavy>
26

>  <SCORE.norm>
-0.556071

>  <RMSD>
24.157

$$$$
ligand
 OpenBabel11021811423D
libRbt.so/2013.1/901 2013/11/27
 26 27  0  0  0  0  0  0  0  0999 V2000
  -13.8301  -14.3382  -73.5248 C   0  0  0  0  0  0  0  0  0  0  0  0
  -13.7674   -9.3596  -79.5085 C   0  0  0  0  0  0  0  0  0  0  0  0
   -9.5953   -6.1892  -77.5398 P   0  0  2  0  0  0  0  0  0  0  0  0
   -9.0999   -7.1405  -74.9864 P   0  0  2  0  0  0  0  0  0  0  0  0
  -15.7197  -10.4383  -77.2777 C   0  0  0  0  0  0  0  0  0  0  0  0
  -15.9009  -12.5994  -76.0706 C   0  0  0  0  0  0  0  0  0  0  0  0
  -15.1962  -11.4187  -76.2661 C   0  0  0  0  0  0  0  0  0  0  0  0
  -14.0077  -11.2174  -75.5581 C   0  0  0  0  0  0  0  0  0  0  0  0
  -13.2416  -10.1321  -75.6728 N   0  0  0  0  0  0  0  0  0  0  0  0
  -13.5851  -12.1811  -74.6795 N   0  0  0  0  0  0  0  0  0  0  0  0
  -14.3103  -13.3243  -74.4937 C   0  0  0  0  0  0  0  0  0  0  0  0
  -15.4607  -13.5534  -75.1783 N   0  0  0  0  0  0  0  0  0  0  0  0
   -9.7215   -7.2612  -78.6041 O   0  5  0  0  0  0  0  0  0  0  0  0
   -7.9860   -7.9621  -75.5954 O   0  0  0  0  0  0  0  0  0  0  0  0
  -14.2309   -6.8974  -76.4942 S   0  0  0  0  0  0  0  0  0  0  0  0
  -15.1268   -8.2422  -76.2824 C   0  0  0  0  0  0  0  0  0  0  0  0
   -8.1484   -5.7053  -77.5882 O   0  0  0  0  0  0  0  0  0  0  0  0
   -9.8497   -7.9126  -73.9200 O   0  5  0  0  0  0  0  0  0  0  0  0
  -15.0338   -9.1686  -77.3039 N   0  0  0  0  0  0  0  0  0  0  0  0
  -10.1347   -6.8233  -76.1567 O   0  0  0  0  0  0  0  0  0  0  0  0
   -8.4954   -5.8782  -74.4057 O   0  0  0  0  0  0  0  0  0  0  0  0
  -14.1707   -8.6867  -78.2570 C   0  0  1  0  0  0  0  0  0  0  0  0
  -13.6680   -7.4281  -77.8914 C   0  0  2  0  0  0  0  0  0  0  0  0
  -12.7022   -6.4462  -78.5076 C   0  0  0  0  0  0  0  0  0  0  0  0
  -12.2126   -5.4245  -77.4759 C   0  0  0  0  0  0  0  0  0  0  0  0
  -10.8431   -5.1267  -77.7181 O   0  0  0  0  0  0  0  0  0  0  0  0
  1 11  1  0  0  0  0
  3 13  1  6  0  0  0
  3 17  2  0  0  0  0
  3 20  1  0  0  0  0
  3 26  1  0  0  0  0
  4 14  1  6  0  0  0
  4 18  1  0  0  0  0
  4 21  2  0  0  0  0
  4 20  1  0  0  0  0
  5 19  1  0  0  0  0
  5  7  1  0  0  0  0
  6  7  2  0  0  0  0
  6 12  1  0  0  0  0
  7  8  1  0  0  0  0
  8  9  1  0  0  0  0
  8 10  2  0  0  0  0
 10 11  1  0  0  0  0
 11 12  2  0  0  0  0
 15 23  1  0  0  0  0
 15 16  1  0  0  0  0
 16 19  1  0  0  0  0
 19 22  1  0  0  0  0
 22  2  1  1  0  0  0
 22 23  1  0  0  0  0
 23 24  1  1  0  0  0
 24 25  1  0  0  0  0
 25 26  1  0  0  0  0
M  CHG  2  13  -1  18  -1
M  END
>  <CHROM.1>
109.92499369,-69.57166133,172.53315473,-51.40966170,16.45466236,142.95689841
-66.58982346,67.96963002,-12.18290498,-8.50312572,-76.40841501,-2.43067071
-0.44950857,-0.63306310

>  <Name>
ligand

>  <RI>
0

>  <Rbt.Current_Directory>
/home/itssahil/PROJECTS/Mol_Feturizer/New_Systems/rnas/2CKY

>  <Rbt.Executable>
rbdock ($Id: //depot/dev/client3/rdock/2013.1/src/exe/rbdock.cxx#4 $)

>  <Rbt.Library>
libRbt.so (2013.1, Build901 2013/11/27)

>  <Rbt.Parameter_File>
/export/apps/rDock/src/rDock_2013.1_src/data/scripts/dock_solv.prm

>  <Rbt.Receptor>
prm/blind_docking_80.prm

>  <SCORE>
-1.57376

>  <SCORE.INTER>
-9.61041

>  <SCORE.INTER.CONST>
1

>  <SCORE.INTER.POLAR>
0

>  <SCORE.INTER.ROT>
8

>  <SCORE.INTER.SOLV>
12.0423

>  <SCORE.INTER.VDW>
-19.3544

>  <SCORE.INTER.norm>
-0.369631

>  <SCORE.INTRA>
4.68392

>  <SCORE.INTRA.DIHEDRAL>
-5.45219

>  <SCORE.INTRA.DIHEDRAL.0>
16.4846

>  <SCORE.INTRA.POLAR>
0

>  <SCORE.INTRA.POLAR.0>
0

>  <SCORE.INTRA.REPUL>
0

>  <SCORE.INTRA.REPUL.0>
0

>  <SCORE.INTRA.SOLV>
4.98676

>  <SCORE.INTRA.SOLV.lig_0>
-82.6983

>  <SCORE.INTRA.VDW>
4.91664

>  <SCORE.INTRA.VDW.0>
-2.11466

>  <SCORE.INTRA.norm>
0.180151

>  <SCORE.RESTR>
3.35272

>  <SCORE.RESTR.CAVITY>
3.35272

>  <SCORE.RESTR.norm>
0.128951

>  <SCORE.SYSTEM>
0

>  <SCORE.SYSTEM.CONST>
0

>  <SCORE.SYSTEM.DIHEDRAL>
0

>  <SCORE.SYSTEM.SOLV>
0

>  <SCORE.SYSTEM.norm>
0

>  <SCORE.heavy>
26

>  <SCORE.norm>
-0.0605293

>  <RMSD>
24.163

$$$$
ligand
 OpenBabel11021811423D
libRbt.so/2013.1/901 2013/11/27
 26 27  0  0  0  0  0  0  0  0999 V2000
  -12.1472  -13.8738  -73.6595 C   0  0  0  0  0  0  0  0  0  0  0  0
  -13.9908   -7.8448  -75.6342 C   0  0  0  0  0  0  0  0  0  0  0  0
   -9.6040   -7.9393  -76.8777 P   0  0  2  0  0  0  0  0  0  0  0  0
   -9.2037   -5.8038  -75.1602 P   0  0  2  0  0  0  0  0  0  0  0  0
  -15.6703  -10.3660  -76.5141 C   0  0  0  0  0  0  0  0  0  0  0  0
  -13.4801  -10.9315  -75.4924 C   0  0  0  0  0  0  0  0  0  0  0  0
  -14.7781  -11.3304  -75.7842 C   0  0  0  0  0  0  0  0  0  0  0  0
  -15.2146  -12.5825  -75.3416 C   0  0  0  0  0  0  0  0  0  0  0  0
  -16.4395  -13.0660  -75.5502 N   0  0  0  0  0  0  0  0  0  0  0  0
  -14.3435  -13.3852  -74.6513 N   0  0  0  0  0  0  0  0  0  0  0  0
  -13.0658  -12.9733  -74.3963 C   0  0  0  0  0  0  0  0  0  0  0  0
  -12.6188  -11.7565  -74.8013 N   0  0  0  0  0  0  0  0  0  0  0  0
   -9.8276   -9.4344  -76.7638 O   0  5  0  0  0  0  0  0  0  0  0  0
   -7.7601   -5.5267  -75.5148 O   0  0  0  0  0  0  0  0  0  0  0  0
  -14.2022   -8.3207  -79.5191 S   0  0  0  0  0  0  0  0  0  0  0  0
  -15.0079   -9.5095  -78.7485 C   0  0  0  0  0  0  0  0  0  0  0  0
   -8.4373   -7.7528  -77.8440 O   0  0  0  0  0  0  0  0  0  0  0  0
   -9.4925   -5.5033  -73.7035 O   0  5  0  0  0  0  0  0  0  0  0  0
  -14.9808   -9.4295  -77.3690 N   0  0  0  0  0  0  0  0  0  0  0  0
   -9.4428   -7.3648  -75.3777 O   0  0  0  0  0  0  0  0  0  0  0  0
  -10.0838   -4.9636  -76.0632 O   0  0  0  0  0  0  0  0  0  0  0  0
  -14.2571   -8.3200  -77.0072 C   0  0  1  0  0  0  0  0  0  0  0  0
  -13.7863   -7.6347  -78.1381 C   0  0  2  0  0  0  0  0  0  0  0  0
  -12.9767   -6.3818  -78.3646 C   0  0  0  0  0  0  0  0  0  0  0  0
  -11.4765   -6.6900  -78.4179 C   0  0  0  0  0  0  0  0  0  0  0  0
  -11.0566   -7.2143  -77.1642 O   0  0  0  0  0  0  0  0  0  0  0  0
  1 11  1  0  0  0  0
  3 13  1  1  0  0  0
  3 17  2  0  0  0  0
  3 20  1  0  0  0  0
  3 26  1  0  0  0  0
  4 14  1  6  0  0  0
  4 18  1  0  0  0  0
  4 21  2  0  0  0  0
  4 20  1  0  0  0  0
  5 19  1  0  0  0  0
  5  7  1  0  0  0  0
  6  7  2  0  0  0  0
  6 12  1  0  0  0  0
  7  8  1  0  0  0  0
  8  9  1  0  0  0  0
  8 10  2  0  0  0  0
 10 11  1  0  0  0  0
 11 12  2  0  0  0  0
 15 23  1  0  0  0  0
 15 16  1  0  0  0  0
 16 19  1  0  0  0  0
 19 22  1  0  0  0  0
 22  2  1  6  0  0  0
 22 23  1  0  0  0  0
 23 24  1  6  0  0  0
 24 25  1  0  0  0  0
 25 26  1  0  0  0  0
M  CHG  2  13  -1  18  -1
M  END
>  <CHROM.1>
-179.55863097,107.61913533,27.85087446,-76.13824244,-90.34597757,-62.85419239
167.71554324,-105.23819013,-12.11010690,-8.74889153,-76.39837224,-2.49767382
-0.53913313,-0.64952859

>  <Name>
ligand

>  <RI>
0

>  <Rbt.Current_Directory>
/home/itssahil/PROJECTS/Mol_Feturizer/New_Systems/rnas/2CKY

>  <Rbt.Executable>
rbdock ($Id: //depot/dev/client3/rdock/2013.1/src/exe/rbdock.cxx#4 $)

>  <Rbt.Library>
libRbt.so (2013.1, Build901 2013/11/27)

>  <Rbt.Parameter_File>
/export/apps/rDock/src/rDock_2013.1_src/data/scripts/dock_solv.prm

>  <Rbt.Receptor>
prm/blind_docking_80.prm

>  <SCORE>
-11.9542

>  <SCORE.INTER>
-9.76776

>  <SCORE.INTER.CONST>
1

>  <SCORE.INTER.POLAR>
0

>  <SCORE.INTER.ROT>
8

>  <SCORE.INTER.SOLV>
21.3237

>  <SCORE.INTER.VDW>
-22.5531

>  <SCORE.INTER.norm>
-0.375683

>  <SCORE.INTRA>
-5.96309

>  <SCORE.INTRA.DIHEDRAL>
-8.60378

>  <SCORE.INTRA.DIHEDRAL.0>
16.4846

>  <SCORE.INTRA.POLAR>
0

>  <SCORE.INTRA.POLAR.0>
0

>  <SCORE.INTRA.REPUL>
0

>  <SCORE.INTRA.REPUL.0>
0

>  <SCORE.INTRA.SOLV>
0.625375

>  <SCORE.INTRA.SOLV.lig_0>
-82.6983

>  <SCORE.INTRA.VDW>
-1.97389

>  <SCORE.INTRA.VDW.0>
-2.11466

>  <SCORE.INTRA.norm>
-0.22935

>  <SCORE.RESTR>
3.77664

>  <SCORE.RESTR.CAVITY>
3.77664

>  <SCORE.RESTR.norm>
0.145255

>  <SCORE.SYSTEM>
0

>  <SCORE.SYSTEM.CONST>
0

>  <SCORE.SYSTEM.DIHEDRAL>
0

>  <SCORE.SYSTEM.SOLV>
0

>  <SCORE.SYSTEM.norm>
0

>  <SCORE.heavy>
26

>  <SCORE.norm>
-0.459778

>  <RMSD>
24.174

$$$$
ligand
 OpenBabel11021811423D
libRbt.so/2013.1/901 2013/11/27
 26 27  0  0  0  0  0  0  0  0999 V2000
  -16.4552  -14.4103  -75.0457 C   0  0  0  0  0  0  0  0  0  0  0  0
  -11.5472   -8.8680  -78.0186 C   0  0  0  0  0  0  0  0  0  0  0  0
   -9.4708   -6.1440  -77.3040 P   0  0  2  0  0  0  0  0  0  0  0  0
   -9.2590   -7.3529  -74.8212 P   0  0  2  0  0  0  0  0  0  0  0  0
  -12.4762  -10.2955  -75.3633 C   0  0  0  0  0  0  0  0  0  0  0  0
  -14.6834  -11.2718  -75.9424 C   0  0  0  0  0  0  0  0  0  0  0  0
  -13.4977  -11.3896  -75.2288 C   0  0  0  0  0  0  0  0  0  0  0  0
  -13.2825  -12.5394  -74.4634 C   0  0  0  0  0  0  0  0  0  0  0  0
  -12.1804  -12.7686  -73.7487 N   0  0  0  0  0  0  0  0  0  0  0  0
  -14.2549  -13.5050  -74.4249 N   0  0  0  0  0  0  0  0  0  0  0  0
  -15.4200  -13.3520  -75.1223 C   0  0  0  0  0  0  0  0  0  0  0  0
  -15.6504  -12.2526  -75.8857 N   0  0  0  0  0  0  0  0  0  0  0  0
   -9.0437   -6.7200  -78.6396 O   0  5  0  0  0  0  0  0  0  0  0  0
   -8.0290   -8.2307  -74.7650 O   0  0  0  0  0  0  0  0  0  0  0  0
  -14.3352   -6.9176  -76.0727 S   0  0  0  0  0  0  0  0  0  0  0  0
  -13.9510   -8.2991  -75.2979 C   0  0  0  0  0  0  0  0  0  0  0  0
   -8.3743   -5.1669  -76.8882 O   0  0  0  0  0  0  0  0  0  0  0  0
  -10.3717   -7.8872  -73.9426 O   0  5  0  0  0  0  0  0  0  0  0  0
  -12.9786   -9.0610  -75.9175 N   0  0  0  0  0  0  0  0  0  0  0  0
   -9.7852   -7.3889  -76.3255 O   0  0  0  0  0  0  0  0  0  0  0  0
   -8.8641   -5.9547  -74.3914 O   0  0  0  0  0  0  0  0  0  0  0  0
  -12.5789   -8.4171  -77.0626 C   0  0  1  0  0  0  0  0  0  0  0  0
  -13.2757   -7.2103  -77.2315 C   0  0  2  0  0  0  0  0  0  0  0  0
  -13.2567   -6.1030  -78.2562 C   0  0  0  0  0  0  0  0  0  0  0  0
  -11.8223   -5.6980  -78.6120 C   0  0  0  0  0  0  0  0  0  0  0  0
  -11.0376   -5.6462  -77.4269 O   0  0  0  0  0  0  0  0  0  0  0  0
  1 11  1  0  0  0  0
  3 13  1  6  0  0  0
  3 17  2  0  0  0  0
  3 20  1  0  0  0  0
  3 26  1  0  0  0  0
  4 14  1  1  0  0  0
  4 18  1  0  0  0  0
  4 21  2  0  0  0  0
  4 20  1  0  0  0  0
  5 19  1  0  0  0  0
  5  7  1  0  0  0  0
  6  7  2  0  0  0  0
  6 12  1  0  0  0  0
  7  8  1  0  0  0  0
  8  9  1  0  0  0  0
  8 10  2  0  0  0  0
 10 11  1  0  0  0  0
 11 12  2  0  0  0  0
 15 23  1  0  0  0  0
 15 16  1  0  0  0  0
 16 19  1  0  0  0  0
 19 22  1  0  0  0  0
 22  2  1  1  0  0  0
 22 23  1  0  0  0  0
 23 24  1  1  0  0  0
 24 25  1  0  0  0  0
 25 26  1  0  0  0  0
M  CHG  2  13  -1  18  -1
M  END
>  <CHROM.1>
136.29956762,62.97685720,16.77576193,-101.71501293,134.52084350,-41.98020941
141.20523124,-2.68192301,-11.87823274,-8.58019277,-76.02738435,2.29737642
0.37868329,2.57536324

>  <Name>
ligand

>  <RI>
0

>  <Rbt.Current_Directory>
/home/itssahil/PROJECTS/Mol_Feturizer/New_Systems/rnas/2CKY

>  <Rbt.Executable>
rbdock ($Id: //depot/dev/client3/rdock/2013.1/src/exe/rbdock.cxx#4 $)

>  <Rbt.Library>
libRbt.so (2013.1, Build901 2013/11/27)

>  <Rbt.Parameter_File>
/export/apps/rDock/src/rDock_2013.1_src/data/scripts/dock_solv.prm

>  <Rbt.Receptor>
prm/blind_docking_80.prm

>  <SCORE>
-0.284235

>  <SCORE.INTER>
-2.01306

>  <SCORE.INTER.CONST>
1

>  <SCORE.INTER.POLAR>
0

>  <SCORE.INTER.ROT>
8

>  <SCORE.INTER.SOLV>
11.8825

>  <SCORE.INTER.VDW>
-14.2362

>  <SCORE.INTER.norm>
-0.0774255

>  <SCORE.INTRA>
0.170623

>  <SCORE.INTRA.DIHEDRAL>
0.81767

>  <SCORE.INTRA.DIHEDRAL.0>
16.4846

>  <SCORE.INTRA.POLAR>
0

>  <SCORE.INTRA.POLAR.0>
0

>  <SCORE.INTRA.REPUL>
0

>  <SCORE.INTRA.REPUL.0>
0

>  <SCORE.INTRA.SOLV>
3.17427

>  <SCORE.INTRA.SOLV.lig_0>
-82.6983

>  <SCORE.INTRA.VDW>
-1.82534

>  <SCORE.INTRA.VDW.0>
-2.11466

>  <SCORE.INTRA.norm>
0.00656243

>  <SCORE.RESTR>
1.5582

>  <SCORE.RESTR.CAVITY>
1.5582

>  <SCORE.RESTR.norm>
0.0599309

>  <SCORE.SYSTEM>
0

>  <SCORE.SYSTEM.CONST>
0

>  <SCORE.SYSTEM.DIHEDRAL>
0

>  <SCORE.SYSTEM.SOLV>
0

>  <SCORE.SYSTEM.norm>
0

>  <SCORE.heavy>
26

>  <SCORE.norm>
-0.0109321

>  <RMSD>
24.194

$$$$
ligand
 OpenBabel11021811423D
libRbt.so/2013.1/901 2013/11/27
 26 27  0  0  0  0  0  0  0  0999 V2000
  -16.4496  -11.4092  -76.7353 C   0  0  0  0  0  0  0  0  0  0  0  0
  -10.2522   -8.0553  -72.8902 C   0  0  0  0  0  0  0  0  0  0  0  0
  -11.4898   -5.0393  -77.6611 P   0  0  2  0  0  0  0  0  0  0  0  0
  -12.8989   -7.4194  -77.5198 P   0  0  2  0  0  0  0  0  0  0  0  0
  -11.3765  -10.7168  -74.1566 C   0  0  0  0  0  0  0  0  0  0  0  0
  -13.2601   -9.9134  -75.5590 C   0  0  0  0  0  0  0  0  0  0  0  0
  -12.7197  -10.9384  -74.7932 C   0  0  0  0  0  0  0  0  0  0  0  0
  -13.4180  -12.1453  -74.6924 C   0  0  0  0  0  0  0  0  0  0  0  0
  -12.9930  -13.2013  -73.9982 N   0  0  0  0  0  0  0  0  0  0  0  0
  -14.6221  -12.2731  -75.3352 N   0  0  0  0  0  0  0  0  0  0  0  0
  -15.1380  -11.2399  -76.0656 C   0  0  0  0  0  0  0  0  0  0  0  0
  -14.4751  -10.0613  -76.1931 N   0  0  0  0  0  0  0  0  0  0  0  0
  -12.5067   -4.5372  -76.6551 O   0  5  0  0  0  0  0  0  0  0  0  0
  -12.0602   -7.6590  -76.2845 O   0  0  0  0  0  0  0  0  0  0  0  0
   -9.2978   -8.5325  -76.6618 S   0  0  0  0  0  0  0  0  0  0  0  0
  -10.1809   -9.7936  -76.1271 C   0  0  0  0  0  0  0  0  0  0  0  0
  -11.1134   -3.8390  -78.5256 O   0  0  0  0  0  0  0  0  0  0  0  0
  -13.0186   -8.6684  -78.3690 O   0  5  0  0  0  0  0  0  0  0  0  0
  -10.5576   -9.7172  -74.7996 N   0  0  0  0  0  0  0  0  0  0  0  0
  -12.1360   -6.3251  -78.3925 O   0  0  0  0  0  0  0  0  0  0  0  0
  -14.2671   -6.9406  -77.0787 O   0  0  0  0  0  0  0  0  0  0  0  0
  -10.0703   -8.5473  -74.2710 C   0  0  1  0  0  0  0  0  0  0  0  0
   -9.3582   -7.8168  -75.2353 C   0  0  2  0  0  0  0  0  0  0  0  0
   -8.6332   -6.4937  -75.2490 C   0  0  0  0  0  0  0  0  0  0  0  0
   -9.5249   -5.3756  -75.7996 C   0  0  0  0  0  0  0  0  0  0  0  0
  -10.3312   -5.8890  -76.8528 O   0  0  0  0  0  0  0  0  0  0  0  0
  1 11  1  0  0  0  0
  3 13  1  1  0  0  0
  3 17  2  0  0  0  0
  3 20  1  0  0  0  0
  3 26  1  0  0  0  0
  4 14  1  1  0  0  0
  4 18  1  0  0  0  0
  4 21  2  0  0  0  0
  4 20  1  0  0  0  0
  5 19  1  0  0  0  0
  5  7  1  0  0  0  0
  6  7  2  0  0  0  0
  6 12  1  0  0  0  0
  7  8  1  0  0  0  0
  8  9  1  0  0  0  0
  8 10  2  0  0  0  0
 10 11  1  0  0  0  0
 11 12  2  0  0  0  0
 15 23  1  0  0  0  0
 15 16  1  0  0  0  0
 16 19  1  0  0  0  0
 19 22  1  0  0  0  0
 22  2  1  6  0  0  0
 22 23  1  0  0  0  0
 23 24  1  6  0  0  0
 24 25  1  0  0  0  0
 25 26  1  0  0  0  0
M  CHG  2  13  -1  18  -1
M  END
>  <CHROM.1>
-43.68538787,-58.27344571,-23.25635646,-43.14858665,83.03221404,-36.84918691
176.43321932,-57.83482694,-11.91658661,-8.24840665,-76.22180983,2.06345507
0.43215954,2.62265633

>  <Name>
ligand

>  <RI>
0

>  <Rbt.Current_Directory>
/home/itssahil/PROJECTS/Mol_Feturizer/New_Systems/rnas/2CKY

>  <Rbt.Executable>
rbdock ($Id: //depot/dev/client3/rdock/2013.1/src/exe/rbdock.cxx#4 $)

>  <Rbt.Library>
libRbt.so (2013.1, Build901 2013/11/27)

>  <Rbt.Parameter_File>
/export/apps/rDock/src/rDock_2013.1_src/data/scripts/dock_solv.prm

>  <Rbt.Receptor>
prm/blind_docking_80.prm

>  <SCORE>
-11.2127

>  <SCORE.INTER>
-6.48558

>  <SCORE.INTER.CONST>
1

>  <SCORE.INTER.POLAR>
0

>  <SCORE.INTER.ROT>
8

>  <SCORE.INTER.SOLV>
20.3187

>  <SCORE.INTER.VDW>
-20.0299

>  <SCORE.INTER.norm>
-0.249445

>  <SCORE.INTRA>
-6.67375

>  <SCORE.INTRA.DIHEDRAL>
-8.76199

>  <SCORE.INTRA.DIHEDRAL.0>
16.4846

>  <SCORE.INTRA.POLAR>
0

>  <SCORE.INTRA.POLAR.0>
0

>  <SCORE.INTRA.REPUL>
0

>  <SCORE.INTRA.REPUL.0>
0

>  <SCORE.INTRA.SOLV>
1.00412

>  <SCORE.INTRA.SOLV.lig_0>
-82.6983

>  <SCORE.INTRA.VDW>
-2.79482

>  <SCORE.INTRA.VDW.0>
-2.11466

>  <SCORE.INTRA.norm>
-0.256683

>  <SCORE.RESTR>
1.94667

>  <SCORE.RESTR.CAVITY>
1.94667

>  <SCORE.RESTR.norm>
0.074872

>  <SCORE.SYSTEM>
0

>  <SCORE.SYSTEM.CONST>
0

>  <SCORE.SYSTEM.DIHEDRAL>
0

>  <SCORE.SYSTEM.SOLV>
0

>  <SCORE.SYSTEM.norm>
0

>  <SCORE.heavy>
26

>  <SCORE.norm>
-0.431256

>  <RMSD>
24.225

$$$$
ligand
 OpenBabel11021811423D
libRbt.so/2013.1/901 2013/11/27
 26 27  0  0  0  0  0  0  0  0999 V2000
  -12.0277  -13.7589  -73.9307 C   0  0  0  0  0  0  0  0  0  0  0  0
  -14.4807   -7.2677  -75.8122 C   0  0  0  0  0  0  0  0  0  0  0  0
   -9.9108   -7.4810  -77.0665 P   0  0  2  0  0  0  0  0  0  0  0  0
  -10.5142   -8.7695  -74.6903 P   0  0  2  0  0  0  0  0  0  0  0  0
  -15.5519  -10.1231  -76.6189 C   0  0  0  0  0  0  0  0  0  0  0  0
  -13.4296  -10.6771  -75.4573 C   0  0  0  0  0  0  0  0  0  0  0  0
  -14.6534  -11.1198  -75.9421 C   0  0  0  0  0  0  0  0  0  0  0  0
  -15.0195  -12.4527  -75.7332 C   0  0  0  0  0  0  0  0  0  0  0  0
  -16.1716  -12.9863  -76.1404 N   0  0  0  0  0  0  0  0  0  0  0  0
  -14.1523  -13.2856  -75.0746 N   0  0  0  0  0  0  0  0  0  0  0  0
  -12.9461  -12.8260  -74.6262 C   0  0  0  0  0  0  0  0  0  0  0  0
  -12.5702  -11.5327  -74.8021 N   0  0  0  0  0  0  0  0  0  0  0  0
   -9.3396   -8.7051  -77.7546 O   0  5  0  0  0  0  0  0  0  0  0  0
  -11.7326   -8.9728  -73.8181 O   0  0  0  0  0  0  0  0  0  0  0  0
  -13.8966   -8.1631  -79.5832 S   0  0  0  0  0  0  0  0  0  0  0  0
  -14.6331   -9.3923  -78.8067 C   0  0  0  0  0  0  0  0  0  0  0  0
   -8.7168   -6.6887  -76.5406 O   0  0  0  0  0  0  0  0  0  0  0  0
   -9.4786   -7.8941  -74.0145 O   0  5  0  0  0  0  0  0  0  0  0  0
  -14.8731   -9.1699  -77.4639 N   0  0  0  0  0  0  0  0  0  0  0  0
  -11.0037   -8.0001  -75.9978 O   0  0  0  0  0  0  0  0  0  0  0  0
   -9.9321  -10.1298  -75.0168 O   0  0  0  0  0  0  0  0  0  0  0  0
  -14.4119   -7.9187  -77.1362 C   0  0  1  0  0  0  0  0  0  0  0  0
  -13.8549   -7.2782  -78.2542 C   0  0  2  0  0  0  0  0  0  0  0  0
  -13.2248   -5.9307  -78.5064 C   0  0  0  0  0  0  0  0  0  0  0  0
  -11.9303   -5.7622  -77.7039 C   0  0  0  0  0  0  0  0  0  0  0  0
  -11.0068   -6.7774  -78.0771 O   0  0  0  0  0  0  0  0  0  0  0  0
  1 11  1  0  0  0  0
  3 13  1  6  0  0  0
  3 17  2  0  0  0  0
  3 20  1  0  0  0  0
  3 26  1  0  0  0  0
  4 14  1  1  0  0  0
  4 18  1  0  0  0  0
  4 21  2  0  0  0  0
  4 20  1  0  0  0  0
  5 19  1  0  0  0  0
  5  7  1  0  0  0  0
  6  7  2  0  0  0  0
  6 12  1  0  0  0  0
  7  8  1  0  0  0  0
  8  9  1  0  0  0  0
  8 10  2  0  0  0  0
 10 11  1  0  0  0  0
 11 12  2  0  0  0  0
 15 23  1  0  0  0  0
 15 16  1  0  0  0  0
 16 19  1  0  0  0  0
 19 22  1  0  0  0  0
 22  2  1  6  0  0  0
 22 23  1  0  0  0  0
 23 24  1  6  0  0  0
 24 25  1  0  0  0  0
 25 26  1  0  0  0  0
M  CHG  2  13  -1  18  -1
M  END
>  <CHROM.1>
70.47742593,89.86426964,39.24557584,173.21251487,-116.41020727,59.69068493
-146.66741685,167.67667812,-12.39573668,-9.13447974,-76.40382053,-2.23846047
-0.45579588,-0.64686400

>  <Name>
ligand

>  <RI>
0

>  <Rbt.Current_Directory>
/home/itssahil/PROJECTS/Mol_Feturizer/New_Systems/rnas/2CKY

>  <Rbt.Executable>
rbdock ($Id: //depot/dev/client3/rdock/2013.1/src/exe/rbdock.cxx#4 $)

>  <Rbt.Library>
libRbt.so (2013.1, Build901 2013/11/27)

>  <Rbt.Parameter_File>
/export/apps/rDock/src/rDock_2013.1_src/data/scripts/dock_solv.prm

>  <Rbt.Receptor>
prm/blind_docking_80.prm

>  <SCORE>
-14.7512

>  <SCORE.INTER>
-12.5522

>  <SCORE.INTER.CONST>
1

>  <SCORE.INTER.POLAR>
0

>  <SCORE.INTER.ROT>
8

>  <SCORE.INTER.SOLV>
13.0674

>  <SCORE.INTER.VDW>
-21.6573

>  <SCORE.INTER.norm>
-0.482778

>  <SCORE.INTRA>
-6.14561

>  <SCORE.INTRA.DIHEDRAL>
-7.36958

>  <SCORE.INTRA.DIHEDRAL.0>
16.4846

>  <SCORE.INTRA.POLAR>
0

>  <SCORE.INTRA.POLAR.0>
0

>  <SCORE.INTRA.REPUL>
0

>  <SCORE.INTRA.REPUL.0>
0

>  <SCORE.INTRA.SOLV>
2.849

>  <SCORE.INTRA.SOLV.lig_0>
-82.6983

>  <SCORE.INTRA.VDW>
-3.88532

>  <SCORE.INTRA.VDW.0>
-2.11466

>  <SCORE.INTRA.norm>
-0.23637

>  <SCORE.RESTR>
3.94665

>  <SCORE.RESTR.CAVITY>
3.94665

>  <SCORE.RESTR.norm>
0.151794

>  <SCORE.SYSTEM>
0

>  <SCORE.SYSTEM.CONST>
0

>  <SCORE.SYSTEM.DIHEDRAL>
0

>  <SCORE.SYSTEM.SOLV>
0

>  <SCORE.SYSTEM.norm>
0

>  <SCORE.heavy>
26

>  <SCORE.norm>
-0.567354

>  <RMSD>
24.241

$$$$
ligand
 OpenBabel11021811423D
libRbt.so/2013.1/901 2013/11/27
 26 27  0  0  0  0  0  0  0  0999 V2000
  -14.3472  -12.7159  -75.1488 C   0  0  0  0  0  0  0  0  0  0  0  0
  -12.0065   -8.8062  -78.5290 C   0  0  0  0  0  0  0  0  0  0  0  0
   -8.6435   -6.8500  -74.8431 P   0  0  2  0  0  0  0  0  0  0  0  0
   -9.9249   -9.2857  -74.5331 P   0  0  2  0  0  0  0  0  0  0  0  0
  -14.4298   -7.3405  -77.1396 C   0  0  0  0  0  0  0  0  0  0  0  0
  -15.1690   -9.7097  -77.1689 C   0  0  0  0  0  0  0  0  0  0  0  0
  -14.3913   -8.7293  -76.5664 C   0  0  0  0  0  0  0  0  0  0  0  0
  -13.5691   -9.0853  -75.4934 C   0  0  0  0  0  0  0  0  0  0  0  0
  -12.7712   -8.2353  -74.8463 N   0  0  0  0  0  0  0  0  0  0  0  0
  -13.5702  -10.3848  -75.0567 N   0  0  0  0  0  0  0  0  0  0  0  0
  -14.3611  -11.3235  -75.6571 C   0  0  0  0  0  0  0  0  0  0  0  0
  -15.1588  -11.0097  -76.7106 N   0  0  0  0  0  0  0  0  0  0  0  0
   -7.3276   -7.5217  -74.5033 O   0  5  0  0  0  0  0  0  0  0  0  0
  -10.3719   -9.3757  -75.9749 O   0  0  0  0  0  0  0  0  0  0  0  0
  -11.2588   -5.0778  -77.5790 S   0  0  0  0  0  0  0  0  0  0  0  0
  -12.7811   -5.4842  -77.1622 C   0  0  0  0  0  0  0  0  0  0  0  0
   -8.5082   -5.3948  -74.4026 O   0  0  0  0  0  0  0  0  0  0  0  0
  -10.9424   -9.8943  -73.5898 O   0  5  0  0  0  0  0  0  0  0  0  0
  -13.1394   -6.7835  -77.4680 N   0  0  0  0  0  0  0  0  0  0  0  0
   -9.8177   -7.7355  -74.1774 O   0  0  0  0  0  0  0  0  0  0  0  0
   -8.5899   -9.9909  -74.4053 O   0  0  0  0  0  0  0  0  0  0  0  0
  -12.0684   -7.4073  -78.0592 C   0  0  1  0  0  0  0  0  0  0  0  0
  -10.9713   -6.5375  -78.1598 C   0  0  2  0  0  0  0  0  0  0  0  0
   -9.5619   -6.6560  -78.6852 C   0  0  0  0  0  0  0  0  0  0  0  0
   -8.5348   -6.5551  -77.5524 C   0  0  0  0  0  0  0  0  0  0  0  0
   -9.0339   -7.2237  -76.4005 O   0  0  0  0  0  0  0  0  0  0  0  0
  1 11  1  0  0  0  0
  3 13  1  1  0  0  0
  3 17  2  0  0  0  0
  3 20  1  0  0  0  0
  3 26  1  0  0  0  0
  4 14  1  6  0  0  0
  4 18  1  0  0  0  0
  4 21  2  0  0  0  0
  4 20  1  0  0  0  0
  5 19  1  0  0  0  0
  5  7  1  0  0  0  0
  6  7  2  0  0  0  0
  6 12  1  0  0  0  0
  7  8  1  0  0  0  0
  8  9  1  0  0  0  0
  8 10  2  0  0  0  0
 10 11  1  0  0  0  0
 11 12  2  0  0  0  0
 15 23  1  0  0  0  0
 15 16  1  0  0  0  0
 16 19  1  0  0  0  0
 19 22  1  0  0  0  0
 22  2  1  1  0  0  0
 22 23  1  0  0  0  0
 23 24  1  1  0  0  0
 24 25  1  0  0  0  0
 25 26  1  0  0  0  0
M  CHG  2  13  -1  18  -1
M  END
>  <CHROM.1>
-55.82619138,-136.14569834,-126.49997892,-69.80399301,66.78539985,37.85521766
-151.94729512,-82.81024815,-11.25637107,-8.12555636,-76.02314090,-2.74284734
-0.42954021,-0.64218560

>  <Name>
ligand

>  <RI>
0

>  <Rbt.Current_Directory>
/home/itssahil/PROJECTS/Mol_Feturizer/New_Systems/rnas/2CKY

>  <Rbt.Executable>
rbdock ($Id: //depot/dev/client3/rdock/2013.1/src/exe/rbdock.cxx#4 $)

>  <Rbt.Library>
libRbt.so (2013.1, Build901 2013/11/27)

>  <Rbt.Parameter_File>
/export/apps/rDock/src/rDock_2013.1_src/data/scripts/dock_solv.prm

>  <Rbt.Receptor>
prm/blind_docking_80.prm

>  <SCORE>
-6.87249

>  <SCORE.INTER>
-7.15055

>  <SCORE.INTER.CONST>
1

>  <SCORE.INTER.POLAR>
0

>  <SCORE.INTER.ROT>
8

>  <SCORE.INTER.SOLV>
11.9388

>  <SCORE.INTER.VDW>
-17.68

>  <SCORE.INTER.norm>
-0.275021

>  <SCORE.INTRA>
-1.57183

>  <SCORE.INTRA.DIHEDRAL>
-5.60294

>  <SCORE.INTRA.DIHEDRAL.0>
16.4846

>  <SCORE.INTRA.POLAR>
0

>  <SCORE.INTRA.POLAR.0>
0

>  <SCORE.INTRA.REPUL>
0.00212491

>  <SCORE.INTRA.REPUL.0>
0

>  <SCORE.INTRA.SOLV>
9.46201

>  <SCORE.INTRA.SOLV.lig_0>
-82.6983

>  <SCORE.INTRA.VDW>
-3.51198

>  <SCORE.INTRA.VDW.0>
-2.11466

>  <SCORE.INTRA.norm>
-0.0604548

>  <SCORE.RESTR>
1.84989

>  <SCORE.RESTR.CAVITY>
1.84989

>  <SCORE.RESTR.norm>
0.0711497

>  <SCORE.SYSTEM>
0

>  <SCORE.SYSTEM.CONST>
0

>  <SCORE.SYSTEM.DIHEDRAL>
0

>  <SCORE.SYSTEM.SOLV>
0

>  <SCORE.SYSTEM.norm>
0

>  <SCORE.heavy>
26

>  <SCORE.norm>
-0.264326

>  <RMSD>
24.254

$$$$
ligand
 OpenBabel11021811423D
libRbt.so/2013.1/901 2013/11/27
 26 27  0  0  0  0  0  0  0  0999 V2000
  -12.8405  -13.7609  -74.0002 C   0  0  0  0  0  0  0  0  0  0  0  0
  -14.4466   -7.2886  -75.6838 C   0  0  0  0  0  0  0  0  0  0  0  0
   -9.3938   -6.7796  -76.4847 P   0  0  2  0  0  0  0  0  0  0  0  0
   -9.4245   -9.0537  -74.9043 P   0  0  2  0  0  0  0  0  0  0  0  0
  -15.8146   -9.8389  -76.9392 C   0  0  0  0  0  0  0  0  0  0  0  0
  -13.8302  -10.5826  -75.6471 C   0  0  0  0  0  0  0  0  0  0  0  0
  -15.0630  -10.9084  -76.1976 C   0  0  0  0  0  0  0  0  0  0  0  0
  -15.5747  -12.1932  -75.9933 C   0  0  0  0  0  0  0  0  0  0  0  0
  -16.7499  -12.6151  -76.4609 N   0  0  0  0  0  0  0  0  0  0  0  0
  -14.8364  -13.0969  -75.2738 N   0  0  0  0  0  0  0  0  0  0  0  0
  -13.6173  -12.7533  -74.7609 C   0  0  0  0  0  0  0  0  0  0  0  0
  -13.1018  -11.5083  -74.9311 N   0  0  0  0  0  0  0  0  0  0  0  0
   -9.0246   -7.8487  -77.4941 O   0  5  0  0  0  0  0  0  0  0  0  0
   -9.8595   -9.8241  -76.1306 O   0  0  0  0  0  0  0  0  0  0  0  0
  -13.7882   -7.7005  -79.5257 S   0  0  0  0  0  0  0  0  0  0  0  0
  -14.7061   -8.9246  -78.9641 C   0  0  0  0  0  0  0  0  0  0  0  0
   -8.1973   -5.8353  -76.4035 O   0  0  0  0  0  0  0  0  0  0  0  0
  -10.1340   -9.5371  -73.6557 O   0  5  0  0  0  0  0  0  0  0  0  0
  -14.9839   -8.8685  -77.6114 N   0  0  0  0  0  0  0  0  0  0  0  0
   -9.8533   -7.5358  -75.1345 O   0  0  0  0  0  0  0  0  0  0  0  0
   -7.9239   -9.2036  -74.7573 O   0  0  0  0  0  0  0  0  0  0  0  0
  -14.3914   -7.7463  -77.0871 C   0  0  1  0  0  0  0  0  0  0  0  0
  -13.7058   -7.0281  -78.0794 C   0  0  2  0  0  0  0  0  0  0  0  0
  -12.9052   -5.7495  -78.1085 C   0  0  0  0  0  0  0  0  0  0  0  0
  -11.4012   -6.0356  -78.1746 C   0  0  0  0  0  0  0  0  0  0  0  0
  -10.8936   -6.2056  -76.8569 O   0  0  0  0  0  0  0  0  0  0  0  0
  1 11  1  0  0  0  0
  3 13  1  6  0  0  0
  3 17  2  0  0  0  0
  3 20  1  0  0  0  0
  3 26  1  0  0  0  0
  4 14  1  6  0  0  0
  4 18  1  0  0  0  0
  4 21  2  0  0  0  0
  4 20  1  0  0  0  0
  5 19  1  0  0  0  0
  5  7  1  0  0  0  0
  6  7  2  0  0  0  0
  6 12  1  0  0  0  0
  7  8  1  0  0  0  0
  8  9  1  0  0  0  0
  8 10  2  0  0  0  0
 10 11  1  0  0  0  0
 11 12  2  0  0  0  0
 15 23  1  0  0  0  0
 15 16  1  0  0  0  0
 16 19  1  0  0  0  0
 19 22  1  0  0  0  0
 22  2  1  6  0  0  0
 22 23  1  0  0  0  0
 23 24  1  6  0  0  0
 24 25  1  0  0  0  0
 25 26  1  0  0  0  0
M  CHG  2  13  -1  18  -1
M  END
>  <CHROM.1>
19.25363134,99.43501183,31.38813629,-53.13538048,-76.64060159,-86.69110531
168.89649788,-35.94059931,-12.19264757,-8.94391012,-76.40203174,-2.59461408
-0.38549765,-0.59342456

>  <Name>
ligand

>  <RI>
0

>  <Rbt.Current_Directory>
/home/itssahil/PROJECTS/Mol_Feturizer/New_Systems/rnas/2CKY

>  <Rbt.Executable>
rbdock ($Id: //depot/dev/client3/rdock/2013.1/src/exe/rbdock.cxx#4 $)

>  <Rbt.Library>
libRbt.so (2013.1, Build901 2013/11/27)

>  <Rbt.Parameter_File>
/export/apps/rDock/src/rDock_2013.1_src/data/scripts/dock_solv.prm

>  <Rbt.Receptor>
prm/blind_docking_80.prm

>  <SCORE>
-13.1115

>  <SCORE.INTER>
-12.6393

>  <SCORE.INTER.CONST>
1

>  <SCORE.INTER.POLAR>
0

>  <SCORE.INTER.ROT>
8

>  <SCORE.INTER.SOLV>
13.0472

>  <SCORE.INTER.VDW>
-21.7086

>  <SCORE.INTER.norm>
-0.486127

>  <SCORE.INTRA>
-3.61083

>  <SCORE.INTRA.DIHEDRAL>
-5.45039

>  <SCORE.INTRA.DIHEDRAL.0>
16.4846

>  <SCORE.INTRA.POLAR>
0

>  <SCORE.INTRA.POLAR.0>
0

>  <SCORE.INTRA.REPUL>
0

>  <SCORE.INTRA.REPUL.0>
0

>  <SCORE.INTRA.SOLV>
0.241869

>  <SCORE.INTRA.SOLV.lig_0>
-82.6983

>  <SCORE.INTRA.VDW>
-1.00657

>  <SCORE.INTRA.VDW.0>
-2.11466

>  <SCORE.INTRA.norm>
-0.138878

>  <SCORE.RESTR>
3.1386

>  <SCORE.RESTR.CAVITY>
3.1386

>  <SCORE.RESTR.norm>
0.120716

>  <SCORE.SYSTEM>
0

>  <SCORE.SYSTEM.CONST>
0

>  <SCORE.SYSTEM.DIHEDRAL>
0

>  <SCORE.SYSTEM.SOLV>
0

>  <SCORE.SYSTEM.norm>
0

>  <SCORE.heavy>
26

>  <SCORE.norm>
-0.50429

>  <RMSD>
24.259

$$$$
ligand
 OpenBabel11021811423D
libRbt.so/2013.1/901 2013/11/27
 26 27  0  0  0  0  0  0  0  0999 V2000
  -14.3792  -11.8855  -75.0391 C   0  0  0  0  0  0  0  0  0  0  0  0
  -11.2757   -8.2016  -79.1602 C   0  0  0  0  0  0  0  0  0  0  0  0
   -8.6867   -6.8903  -74.7630 P   0  0  2  0  0  0  0  0  0  0  0  0
  -10.5084   -8.8313  -73.9985 P   0  0  2  0  0  0  0  0  0  0  0  0
  -14.1045   -7.1437  -78.2492 C   0  0  0  0  0  0  0  0  0  0  0  0
  -15.1829   -9.2656  -77.5457 C   0  0  0  0  0  0  0  0  0  0  0  0
  -14.1452   -8.3599  -77.3672 C   0  0  0  0  0  0  0  0  0  0  0  0
  -13.1584   -8.6432  -76.4184 C   0  0  0  0  0  0  0  0  0  0  0  0
  -12.1107   -7.8571  -76.1691 N   0  0  0  0  0  0  0  0  0  0  0  0
  -13.2555   -9.7945  -75.6806 N   0  0  0  0  0  0  0  0  0  0  0  0
  -14.2991  -10.6571  -75.8650 C   0  0  0  0  0  0  0  0  0  0  0  0
  -15.2642  -10.4152  -76.7895 N   0  0  0  0  0  0  0  0  0  0  0  0
   -7.9112   -8.1734  -74.9874 O   0  5  0  0  0  0  0  0  0  0  0  0
   -9.5596   -9.2456  -72.8964 O   0  0  0  0  0  0  0  0  0  0  0  0
  -11.2190   -4.5301  -77.7891 S   0  0  0  0  0  0  0  0  0  0  0  0
  -12.7329   -5.1328  -77.7591 C   0  0  0  0  0  0  0  0  0  0  0  0
   -7.8681   -6.0617  -73.7764 O   0  0  0  0  0  0  0  0  0  0  0  0
  -10.2824   -9.6313  -75.2653 O   0  5  0  0  0  0  0  0  0  0  0  0
  -12.8528   -6.4250  -78.2345 N   0  0  0  0  0  0  0  0  0  0  0  0
  -10.1871   -7.3072  -74.3377 O   0  0  0  0  0  0  0  0  0  0  0  0
  -11.9266   -9.0145  -73.4975 O   0  0  0  0  0  0  0  0  0  0  0  0
  -11.6106   -6.8711  -78.6131 C   0  0  1  0  0  0  0  0  0  0  0  0
  -10.6341   -5.8859  -78.3975 C   0  0  2  0  0  0  0  0  0  0  0  0
   -9.1409   -5.8035  -78.5979 C   0  0  0  0  0  0  0  0  0  0  0  0
   -8.3862   -6.4660  -77.4404 C   0  0  0  0  0  0  0  0  0  0  0  0
   -9.1098   -6.2720  -76.2314 O   0  0  0  0  0  0  0  0  0  0  0  0
  1 11  1  0  0  0  0
  3 13  1  6  0  0  0
  3 17  2  0  0  0  0
  3 20  1  0  0  0  0
  3 26  1  0  0  0  0
  4 14  1  1  0  0  0
  4 18  1  0  0  0  0
  4 21  2  0  0  0  0
  4 20  1  0  0  0  0
  5 19  1  0  0  0  0
  5  7  1  0  0  0  0
  6  7  2  0  0  0  0
  6 12  1  0  0  0  0
  7  8  1  0  0  0  0
  8  9  1  0  0  0  0
  8 10  2  0  0  0  0
 10 11  1  0  0  0  0
 11 12  2  0  0  0  0
 15 23  1  0  0  0  0
 15 16  1  0  0  0  0
 16 19  1  0  0  0  0
 19 22  1  0  0  0  0
 22  2  1  1  0  0  0
 22 23  1  0  0  0  0
 23 24  1  1  0  0  0
 24 25  1  0  0  0  0
 25 26  1  0  0  0  0
M  CHG  2  13  -1  18  -1
M  END
>  <CHROM.1>
10.07070522,-115.55353532,-165.81171881,56.28637088,98.38236754,-33.83349724
176.70736031,-28.15895290,-11.24762020,-7.74467904,-76.14855362,-2.91988275
-0.50222366,-0.81875049

>  <Name>
ligand

>  <RI>
0

>  <Rbt.Current_Directory>
/home/itssahil/PROJECTS/Mol_Feturizer/New_Systems/rnas/2CKY

>  <Rbt.Executable>
rbdock ($Id: //depot/dev/client3/rdock/2013.1/src/exe/rbdock.cxx#4 $)

>  <Rbt.Library>
libRbt.so (2013.1, Build901 2013/11/27)

>  <Rbt.Parameter_File>
/export/apps/rDock/src/rDock_2013.1_src/data/scripts/dock_solv.prm

>  <Rbt.Receptor>
prm/blind_docking_80.prm

>  <SCORE>
-3.33092

>  <SCORE.INTER>
-9.65547

>  <SCORE.INTER.CONST>
1

>  <SCORE.INTER.POLAR>
0

>  <SCORE.INTER.ROT>
8

>  <SCORE.INTER.SOLV>
9.83852

>  <SCORE.INTER.VDW>
-18.6498

>  <SCORE.INTER.norm>
-0.371364

>  <SCORE.INTRA>
2.9658

>  <SCORE.INTRA.DIHEDRAL>
-5.57071

>  <SCORE.INTRA.DIHEDRAL.0>
16.4846

>  <SCORE.INTRA.POLAR>
0

>  <SCORE.INTRA.POLAR.0>
0

>  <SCORE.INTRA.REPUL>
0

>  <SCORE.INTRA.REPUL.0>
0

>  <SCORE.INTRA.SOLV>
16.5039

>  <SCORE.INTRA.SOLV.lig_0>
-82.6983

>  <SCORE.INTRA.VDW>
-2.50081

>  <SCORE.INTRA.VDW.0>
-2.11466

>  <SCORE.INTRA.norm>
0.114069

>  <SCORE.RESTR>
3.35875

>  <SCORE.RESTR.CAVITY>
3.35875

>  <SCORE.RESTR.norm>
0.129183

>  <SCORE.SYSTEM>
0

>  <SCORE.SYSTEM.CONST>
0

>  <SCORE.SYSTEM.DIHEDRAL>
0

>  <SCORE.SYSTEM.SOLV>
0

>  <SCORE.SYSTEM.norm>
0

>  <SCORE.heavy>
26

>  <SCORE.norm>
-0.128112

>  <RMSD>
24.310

$$$$
ligand
 OpenBabel11021811423D
libRbt.so/2013.1/901 2013/11/27
 26 27  0  0  0  0  0  0  0  0999 V2000
  -15.8355  -13.9087  -73.3860 C   0  0  0  0  0  0  0  0  0  0  0  0
  -13.2856   -8.6328  -79.6311 C   0  0  0  0  0  0  0  0  0  0  0  0
   -9.3228   -6.0808  -75.7230 P   0  0  2  0  0  0  0  0  0  0  0  0
   -8.9601   -8.7853  -75.2490 P   0  0  2  0  0  0  0  0  0  0  0  0
  -15.2377  -10.3221  -77.8182 C   0  0  0  0  0  0  0  0  0  0  0  0
  -16.4325  -12.1114  -76.5808 C   0  0  0  0  0  0  0  0  0  0  0  0
  -15.3635  -11.2258  -76.6240 C   0  0  0  0  0  0  0  0  0  0  0  0
  -14.4251  -11.2502  -75.5880 C   0  0  0  0  0  0  0  0  0  0  0  0
  -13.3539  -10.4585  -75.5283 N   0  0  0  0  0  0  0  0  0  0  0  0
  -14.5991  -12.1323  -74.5531 N   0  0  0  0  0  0  0  0  0  0  0  0
  -15.6719  -12.9782  -74.5283 C   0  0  0  0  0  0  0  0  0  0  0  0
  -16.5913  -12.9869  -75.5280 N   0  0  0  0  0  0  0  0  0  0  0  0
   -8.1799   -6.3400  -76.6847 O   0  5  0  0  0  0  0  0  0  0  0  0
   -8.6010   -9.1200  -76.6793 O   0  0  0  0  0  0  0  0  0  0  0  0
  -14.1738   -6.8997  -76.2295 S   0  0  0  0  0  0  0  0  0  0  0  0
  -14.9348   -8.3349  -76.3607 C   0  0  0  0  0  0  0  0  0  0  0  0
   -8.7611   -5.1868  -74.6207 O   0  0  0  0  0  0  0  0  0  0  0  0
   -9.7285   -9.9094  -74.5844 O   0  5  0  0  0  0  0  0  0  0  0  0
  -14.6878   -9.0175  -77.5368 N   0  0  0  0  0  0  0  0  0  0  0  0
   -9.9248   -7.5172  -75.2983 O   0  0  0  0  0  0  0  0  0  0  0  0
   -7.6791   -8.4949  -74.4937 O   0  0  0  0  0  0  0  0  0  0  0  0
  -13.8273   -8.2727  -78.3050 C   0  0  1  0  0  0  0  0  0  0  0  0
  -13.4803   -7.0766  -77.6573 C   0  0  2  0  0  0  0  0  0  0  0  0
  -12.5891   -5.9051  -77.9884 C   0  0  0  0  0  0  0  0  0  0  0  0
  -11.1116   -6.2513  -77.7749 C   0  0  0  0  0  0  0  0  0  0  0  0
  -10.6422   -5.6131  -76.5937 O   0  0  0  0  0  0  0  0  0  0  0  0
  1 11  1  0  0  0  0
  3 13  1  6  0  0  0
  3 17  2  0  0  0  0
  3 20  1  0  0  0  0
  3 26  1  0  0  0  0
  4 14  1  6  0  0  0
  4 18  1  0  0  0  0
  4 21  2  0  0  0  0
  4 20  1  0  0  0  0
  5 19  1  0  0  0  0
  5  7  1  0  0  0  0
  6  7  2  0  0  0  0
  6 12  1  0  0  0  0
  7  8  1  0  0  0  0
  8  9  1  0  0  0  0
  8 10  2  0  0  0  0
 10 11  1  0  0  0  0
 11 12  2  0  0  0  0
 15 23  1  0  0  0  0
 15 16  1  0  0  0  0
 16 19  1  0  0  0  0
 19 22  1  0  0  0  0
 22  2  1  1  0  0  0
 22 23  1  0  0  0  0
 23 24  1  1  0  0  0
 24 25  1  0  0  0  0
 25 26  1  0  0  0  0
M  CHG  2  13  -1  18  -1
M  END
>  <CHROM.1>
30.45114731,-35.08330535,146.23867433,-70.17082293,102.37902551,-105.87260478
158.57080813,46.18842280,-12.19667055,-8.72945088,-76.12477873,-2.58530152
-0.37113246,-0.55256414

>  <Name>
ligand

>  <RI>
0

>  <Rbt.Current_Directory>
/home/itssahil/PROJECTS/Mol_Feturizer/New_Systems/rnas/2CKY

>  <Rbt.Executable>
rbdock ($Id: //depot/dev/client3/rdock/2013.1/src/exe/rbdock.cxx#4 $)

>  <Rbt.Library>
libRbt.so (2013.1, Build901 2013/11/27)

>  <Rbt.Parameter_File>
/export/apps/rDock/src/rDock_2013.1_src/data/scripts/dock_solv.prm

>  <Rbt.Receptor>
prm/blind_docking_80.prm

>  <SCORE>
-9.99628

>  <SCORE.INTER>
-12.7219

>  <SCORE.INTER.CONST>
1

>  <SCORE.INTER.POLAR>
0

>  <SCORE.INTER.ROT>
8

>  <SCORE.INTER.SOLV>
16.4333

>  <SCORE.INTER.VDW>
-22.8924

>  <SCORE.INTER.norm>
-0.489305

>  <SCORE.INTRA>
-1.02032

>  <SCORE.INTRA.DIHEDRAL>
-3.32066

>  <SCORE.INTRA.DIHEDRAL.0>
16.4846

>  <SCORE.INTRA.POLAR>
0

>  <SCORE.INTRA.POLAR.0>
0

>  <SCORE.INTRA.REPUL>
0

>  <SCORE.INTRA.REPUL.0>
0

>  <SCORE.INTRA.SOLV>
4.25282

>  <SCORE.INTRA.SOLV.lig_0>
-82.6983

>  <SCORE.INTRA.VDW>
-1.4864

>  <SCORE.INTRA.VDW.0>
-2.11466

>  <SCORE.INTRA.norm>
-0.0392431

>  <SCORE.RESTR>
3.74597

>  <SCORE.RESTR.CAVITY>
3.74597

>  <SCORE.RESTR.norm>
0.144076

>  <SCORE.SYSTEM>
0

>  <SCORE.SYSTEM.CONST>
0

>  <SCORE.SYSTEM.DIHEDRAL>
0

>  <SCORE.SYSTEM.SOLV>
0

>  <SCORE.SYSTEM.norm>
0

>  <SCORE.heavy>
26

>  <SCORE.norm>
-0.384472

>  <RMSD>
24.393

$$$$
ligand
 OpenBabel11021811423D
libRbt.so/2013.1/901 2013/11/27
 26 27  0  0  0  0  0  0  0  0999 V2000
   -7.1380   -9.4172  -73.9445 C   0  0  0  0  0  0  0  0  0  0  0  0
  -11.5659   -8.3943  -76.2748 C   0  0  0  0  0  0  0  0  0  0  0  0
  -15.8246  -11.5846  -76.0913 P   0  0  2  0  0  0  0  0  0  0  0  0
  -13.5766  -12.1737  -74.5848 P   0  0  2  0  0  0  0  0  0  0  0  0
  -10.2909   -5.5516  -76.7696 C   0  0  0  0  0  0  0  0  0  0  0  0
   -9.4953   -6.6454  -74.6885 C   0  0  0  0  0  0  0  0  0  0  0  0
   -9.4276   -6.5659  -76.0735 C   0  0  0  0  0  0  0  0  0  0  0  0
   -8.6057   -7.4636  -76.7613 C   0  0  0  0  0  0  0  0  0  0  0  0
   -8.4706   -7.4908  -78.0875 N   0  0  0  0  0  0  0  0  0  0  0  0
   -7.8780   -8.3804  -76.0478 N   0  0  0  0  0  0  0  0  0  0  0  0
   -7.9502   -8.4217  -74.6838 C   0  0  0  0  0  0  0  0  0  0  0  0
   -8.7510   -7.5719  -73.9901 N   0  0  0  0  0  0  0  0  0  0  0  0
  -17.1560  -10.8986  -75.8571 O   0  5  0  0  0  0  0  0  0  0  0  0
  -13.4680  -12.5087  -73.1142 O   0  0  0  0  0  0  0  0  0  0  0  0
  -13.5784   -6.1834  -78.8096 S   0  0  0  0  0  0  0  0  0  0  0  0
  -12.2747   -5.3794  -78.2528 C   0  0  0  0  0  0  0  0  0  0  0  0
  -16.1473  -13.0238  -76.4845 O   0  0  0  0  0  0  0  0  0  0  0  0
  -12.4365  -11.2886  -75.0456 O   0  5  0  0  0  0  0  0  0  0  0  0
  -11.5059   -6.0798  -77.3425 N   0  0  0  0  0  0  0  0  0  0  0  0
  -14.9251  -11.3446  -74.7726 O   0  0  0  0  0  0  0  0  0  0  0  0
  -13.5946  -13.4714  -75.3668 O   0  0  0  0  0  0  0  0  0  0  0  0
  -12.0696   -7.3171  -77.1510 C   0  0  1  0  0  0  0  0  0  0  0  0
  -13.2269   -7.4698  -77.9307 C   0  0  2  0  0  0  0  0  0  0  0  0
  -14.2279   -8.5778  -78.1467 C   0  0  0  0  0  0  0  0  0  0  0  0
  -14.5904   -9.2662  -76.8265 C   0  0  0  0  0  0  0  0  0  0  0  0
  -14.9109  -10.6292  -77.0761 O   0  0  0  0  0  0  0  0  0  0  0  0
  1 11  1  0  0  0  0
  3 13  1  1  0  0  0
  3 17  2  0  0  0  0
  3 20  1  0  0  0  0
  3 26  1  0  0  0  0
  4 14  1  1  0  0  0
  4 18  1  0  0  0  0
  4 21  2  0  0  0  0
  4 20  1  0  0  0  0
  5 19  1  0  0  0  0
  5  7  1  0  0  0  0
  6  7  2  0  0  0  0
  6 12  1  0  0  0  0
  7  8  1  0  0  0  0
  8  9  1  0  0  0  0
  8 10  2  0  0  0  0
 10 11  1  0  0  0  0
 11 12  2  0  0  0  0
 15 23  1  0  0  0  0
 15 16  1  0  0  0  0
 16 19  1  0  0  0  0
 19 22  1  0  0  0  0
 22  2  1  6  0  0  0
 22 23  1  0  0  0  0
 23 24  1  6  0  0  0
 24 25  1  0  0  0  0
 25 26  1  0  0  0  0
M  CHG  2  13  -1  18  -1
M  END
>  <CHROM.1>
168.23303431,-165.75894989,-99.73023225,-142.21639835,-138.64722692,-149.56920130
-157.92596371,54.97555001,-12.45181392,-9.24286931,-76.16583479,-0.63235064
0.35536771,2.54357987

>  <Name>
ligand

>  <RI>
0

>  <Rbt.Current_Directory>
/home/itssahil/PROJECTS/Mol_Feturizer/New_Systems/rnas/2CKY

>  <Rbt.Executable>
rbdock ($Id: //depot/dev/client3/rdock/2013.1/src/exe/rbdock.cxx#4 $)

>  <Rbt.Library>
libRbt.so (2013.1, Build901 2013/11/27)

>  <Rbt.Parameter_File>
/export/apps/rDock/src/rDock_2013.1_src/data/scripts/dock_solv.prm

>  <Rbt.Receptor>
prm/blind_docking_80.prm

>  <SCORE>
-6.26725

>  <SCORE.INTER>
-9.64541

>  <SCORE.INTER.CONST>
1

>  <SCORE.INTER.POLAR>
0

>  <SCORE.INTER.ROT>
8

>  <SCORE.INTER.SOLV>
18.6188

>  <SCORE.INTER.VDW>
-21.5699

>  <SCORE.INTER.norm>
-0.370977

>  <SCORE.INTRA>
0.267783

>  <SCORE.INTRA.DIHEDRAL>
-4.863

>  <SCORE.INTRA.DIHEDRAL.0>
16.4846

>  <SCORE.INTRA.POLAR>
0

>  <SCORE.INTRA.POLAR.0>
0

>  <SCORE.INTRA.REPUL>
0

>  <SCORE.INTRA.REPUL.0>
0

>  <SCORE.INTRA.SOLV>
4.10191

>  <SCORE.INTRA.SOLV.lig_0>
-82.6983

>  <SCORE.INTRA.VDW>
0.64833

>  <SCORE.INTRA.VDW.0>
-2.11466

>  <SCORE.INTRA.norm>
0.0102993

>  <SCORE.RESTR>
3.11038

>  <SCORE.RESTR.CAVITY>
3.11038

>  <SCORE.RESTR.norm>
0.11963

>  <SCORE.SYSTEM>
0

>  <SCORE.SYSTEM.CONST>
0

>  <SCORE.SYSTEM.DIHEDRAL>
0

>  <SCORE.SYSTEM.SOLV>
0

>  <SCORE.SYSTEM.norm>
0

>  <SCORE.heavy>
26

>  <SCORE.norm>
-0.241048

>  <RMSD>
24.425

$$$$
ligand
 OpenBabel11021811423D
libRbt.so/2013.1/901 2013/11/27
 26 27  0  0  0  0  0  0  0  0999 V2000
   -7.3902   -9.3450  -73.9813 C   0  0  0  0  0  0  0  0  0  0  0  0
  -12.2319   -9.0049  -79.0339 C   0  0  0  0  0  0  0  0  0  0  0  0
  -15.5073  -12.6432  -75.6498 P   0  0  2  0  0  0  0  0  0  0  0  0
  -13.0551  -12.0627  -74.5008 P   0  0  2  0  0  0  0  0  0  0  0  0
  -11.2554   -6.6166  -77.2189 C   0  0  0  0  0  0  0  0  0  0  0  0
  -10.6075   -8.0101  -75.2698 C   0  0  0  0  0  0  0  0  0  0  0  0
  -10.2018   -7.2953  -76.3894 C   0  0  0  0  0  0  0  0  0  0  0  0
   -8.8451   -7.2827  -76.7264 C   0  0  0  0  0  0  0  0  0  0  0  0
   -8.3412   -6.6438  -77.7827 N   0  0  0  0  0  0  0  0  0  0  0  0
   -7.9557   -7.9587  -75.9319 N   0  0  0  0  0  0  0  0  0  0  0  0
   -8.3824   -8.6371  -74.8251 C   0  0  0  0  0  0  0  0  0  0  0  0
   -9.6957   -8.6789  -74.4816 N   0  0  0  0  0  0  0  0  0  0  0  0
  -16.0611  -11.9945  -74.3966 O   0  5  0  0  0  0  0  0  0  0  0  0
  -13.2564  -10.6814  -75.0823 O   0  0  0  0  0  0  0  0  0  0  0  0
  -14.9666   -7.6899  -76.5530 S   0  0  0  0  0  0  0  0  0  0  0  0
  -13.5769   -6.8579  -76.3720 C   0  0  0  0  0  0  0  0  0  0  0  0
  -16.4855  -13.7529  -76.0261 O   0  0  0  0  0  0  0  0  0  0  0  0
  -11.6247  -12.5365  -74.6593 O   0  5  0  0  0  0  0  0  0  0  0  0
  -12.5477   -7.2592  -77.2027 N   0  0  0  0  0  0  0  0  0  0  0  0
  -13.9783  -13.0566  -75.3380 O   0  0  0  0  0  0  0  0  0  0  0  0
  -13.4452  -12.0228  -73.0373 O   0  0  0  0  0  0  0  0  0  0  0  0
  -12.9963   -8.2891  -77.9923 C   0  0  1  0  0  0  0  0  0  0  0  0
  -14.3357   -8.5969  -77.7062 C   0  0  2  0  0  0  0  0  0  0  0  0
  -15.3392   -9.5883  -78.2415 C   0  0  0  0  0  0  0  0  0  0  0  0
  -15.9893  -10.3896  -77.1086 C   0  0  0  0  0  0  0  0  0  0  0  0
  -15.1281  -11.4558  -76.7286 O   0  0  0  0  0  0  0  0  0  0  0  0
  1 11  1  0  0  0  0
  3 13  1  1  0  0  0
  3 17  2  0  0  0  0
  3 20  1  0  0  0  0
  3 26  1  0  0  0  0
  4 14  1  6  0  0  0
  4 18  1  0  0  0  0
  4 21  2  0  0  0  0
  4 20  1  0  0  0  0
  5 19  1  0  0  0  0
  5  7  1  0  0  0  0
  6  7  2  0  0  0  0
  6 12  1  0  0  0  0
  7  8  1  0  0  0  0
  8  9  1  0  0  0  0
  8 10  2  0  0  0  0
 10 11  1  0  0  0  0
 11 12  2  0  0  0  0
 15 23  1  0  0  0  0
 15 16  1  0  0  0  0
 16 19  1  0  0  0  0
 19 22  1  0  0  0  0
 22  2  1  6  0  0  0
 22 23  1  0  0  0  0
 23 24  1  6  0  0  0
 24 25  1  0  0  0  0
 25 26  1  0  0  0  0
M  CHG  2  13  -1  18  -1
M  END
>  <CHROM.1>
-40.34906356,96.98575397,-29.14101187,-46.24483697,-51.65245633,-81.76781988
-173.73726748,-49.52771736,-12.77803024,-9.84243282,-75.97870719,-0.57711132
0.32664817,2.54984194

>  <Name>
ligand

>  <RI>
0

>  <Rbt.Current_Directory>
/home/itssahil/PROJECTS/Mol_Feturizer/New_Systems/rnas/2CKY

>  <Rbt.Executable>
rbdock ($Id: //depot/dev/client3/rdock/2013.1/src/exe/rbdock.cxx#4 $)

>  <Rbt.Library>
libRbt.so (2013.1, Build901 2013/11/27)

>  <Rbt.Parameter_File>
/export/apps/rDock/src/rDock_2013.1_src/data/scripts/dock_solv.prm

>  <Rbt.Receptor>
prm/blind_docking_80.prm

>  <SCORE>
-11.0549

>  <SCORE.INTER>
-9.08689

>  <SCORE.INTER.CONST>
1

>  <SCORE.INTER.POLAR>
0

>  <SCORE.INTER.ROT>
8

>  <SCORE.INTER.SOLV>
13.424

>  <SCORE.INTER.VDW>
-19.4659

>  <SCORE.INTER.norm>
-0.349496

>  <SCORE.INTRA>
-5.41933

>  <SCORE.INTRA.DIHEDRAL>
-8.27867

>  <SCORE.INTRA.DIHEDRAL.0>
16.4846

>  <SCORE.INTRA.POLAR>
0

>  <SCORE.INTRA.POLAR.0>
0

>  <SCORE.INTRA.REPUL>
0

>  <SCORE.INTRA.REPUL.0>
0

>  <SCORE.INTRA.SOLV>
-0.640313

>  <SCORE.INTRA.SOLV.lig_0>
-82.6983

>  <SCORE.INTRA.VDW>
-0.959837

>  <SCORE.INTRA.VDW.0>
-2.11466

>  <SCORE.INTRA.norm>
-0.208436

>  <SCORE.RESTR>
3.45131

>  <SCORE.RESTR.CAVITY>
3.45131

>  <SCORE.RESTR.norm>
0.132743

>  <SCORE.SYSTEM>
0

>  <SCORE.SYSTEM.CONST>
0

>  <SCORE.SYSTEM.DIHEDRAL>
0

>  <SCORE.SYSTEM.SOLV>
0

>  <SCORE.SYSTEM.norm>
0

>  <SCORE.heavy>
26

>  <SCORE.norm>
-0.425189

>  <RMSD>
24.495

$$$$
ligand
 OpenBabel11021811423D
libRbt.so/2013.1/901 2013/11/27
 26 27  0  0  0  0  0  0  0  0999 V2000
  -14.1773  -13.7189  -72.9377 C   0  0  0  0  0  0  0  0  0  0  0  0
  -13.2756   -8.8194  -79.5053 C   0  0  0  0  0  0  0  0  0  0  0  0
   -9.3984   -6.8912  -75.9382 P   0  0  2  0  0  0  0  0  0  0  0  0
  -10.0512   -9.2633  -74.6666 P   0  0  2  0  0  0  0  0  0  0  0  0
  -15.1413  -10.3892  -77.5038 C   0  0  0  0  0  0  0  0  0  0  0  0
  -13.7680  -11.1377  -75.5765 C   0  0  0  0  0  0  0  0  0  0  0  0
  -14.9232  -11.3020  -76.3299 C   0  0  0  0  0  0  0  0  0  0  0  0
  -15.8546  -12.2669  -75.9350 C   0  0  0  0  0  0  0  0  0  0  0  0
  -17.0022  -12.5052  -76.5706 N   0  0  0  0  0  0  0  0  0  0  0  0
  -15.5906  -13.0334  -74.8295 N   0  0  0  0  0  0  0  0  0  0  0  0
  -14.4358  -12.8620  -74.1194 C   0  0  0  0  0  0  0  0  0  0  0  0
  -13.5198  -11.9228  -74.4710 N   0  0  0  0  0  0  0  0  0  0  0  0
   -8.2406   -6.9085  -76.9166 O   0  5  0  0  0  0  0  0  0  0  0  0
   -8.6160   -9.6916  -74.4582 O   0  0  0  0  0  0  0  0  0  0  0  0
  -14.0945   -6.8337  -76.2267 S   0  0  0  0  0  0  0  0  0  0  0  0
  -14.8323   -8.2869  -76.2194 C   0  0  0  0  0  0  0  0  0  0  0  0
   -8.8292   -6.4014  -74.6093 O   0  0  0  0  0  0  0  0  0  0  0  0
  -10.9601  -10.4483  -74.9225 O   0  5  0  0  0  0  0  0  0  0  0  0
  -14.6076   -9.0576  -77.3444 N   0  0  0  0  0  0  0  0  0  0  0  0
  -10.0779   -8.3550  -75.9763 O   0  0  0  0  0  0  0  0  0  0  0  0
  -10.5020   -8.5005  -73.4375 O   0  0  0  0  0  0  0  0  0  0  0  0
  -13.7843   -8.3630  -78.1959 C   0  0  1  0  0  0  0  0  0  0  0  0
  -13.4405   -7.1133  -77.6567 C   0  0  2  0  0  0  0  0  0  0  0  0
  -12.5815   -5.9579  -78.1076 C   0  0  0  0  0  0  0  0  0  0  0  0
  -11.0908   -6.2937  -77.9920 C   0  0  0  0  0  0  0  0  0  0  0  0
  -10.6685   -6.1141  -76.6458 O   0  0  0  0  0  0  0  0  0  0  0  0
  1 11  1  0  0  0  0
  3 13  1  6  0  0  0
  3 17  2  0  0  0  0
  3 20  1  0  0  0  0
  3 26  1  0  0  0  0
  4 14  1  1  0  0  0
  4 18  1  0  0  0  0
  4 21  2  0  0  0  0
  4 20  1  0  0  0  0
  5 19  1  0  0  0  0
  5  7  1  0  0  0  0
  6  7  2  0  0  0  0
  6 12  1  0  0  0  0
  7  8  1  0  0  0  0
  8  9  1  0  0  0  0
  8 10  2  0  0  0  0
 10 11  1  0  0  0  0
 11 12  2  0  0  0  0
 15 23  1  0  0  0  0
 15 16  1  0  0  0  0
 16 19  1  0  0  0  0
 19 22  1  0  0  0  0
 22  2  1  1  0  0  0
 22 23  1  0  0  0  0
 23 24  1  1  0  0  0
 24 25  1  0  0  0  0
 25 26  1  0  0  0  0
M  CHG  2  13  -1  18  -1
M  END
>  <CHROM.1>
116.06899665,-48.70635683,-32.39022098,-69.76805822,105.79001811,-80.96255329
154.09937924,42.93433133,-12.34120752,-9.05402604,-75.95743941,-2.51531545
-0.43156894,-0.63133723

>  <Name>
ligand

>  <RI>
0

>  <Rbt.Current_Directory>
/home/itssahil/PROJECTS/Mol_Feturizer/New_Systems/rnas/2CKY

>  <Rbt.Executable>
rbdock ($Id: //depot/dev/client3/rdock/2013.1/src/exe/rbdock.cxx#4 $)

>  <Rbt.Library>
libRbt.so (2013.1, Build901 2013/11/27)

>  <Rbt.Parameter_File>
/export/apps/rDock/src/rDock_2013.1_src/data/scripts/dock_solv.prm

>  <Rbt.Receptor>
prm/blind_docking_80.prm

>  <SCORE>
-8.7539

>  <SCORE.INTER>
-7.12812

>  <SCORE.INTER.CONST>
1

>  <SCORE.INTER.POLAR>
0

>  <SCORE.INTER.ROT>
8

>  <SCORE.INTER.SOLV>
12.6054

>  <SCORE.INTER.VDW>
-17.8872

>  <SCORE.INTER.norm>
-0.274158

>  <SCORE.INTRA>
-4.57992

>  <SCORE.INTRA.DIHEDRAL>
-4.61671

>  <SCORE.INTRA.DIHEDRAL.0>
16.4846

>  <SCORE.INTRA.POLAR>
0

>  <SCORE.INTRA.POLAR.0>
0

>  <SCORE.INTRA.REPUL>
0

>  <SCORE.INTRA.REPUL.0>
0

>  <SCORE.INTRA.SOLV>
0.468744

>  <SCORE.INTRA.SOLV.lig_0>
-82.6983

>  <SCORE.INTRA.VDW>
-2.50594

>  <SCORE.INTRA.VDW.0>
-2.11466

>  <SCORE.INTRA.norm>
-0.176151

>  <SCORE.RESTR>
2.95414

>  <SCORE.RESTR.CAVITY>
2.95414

>  <SCORE.RESTR.norm>
0.113621

>  <SCORE.SYSTEM>
0

>  <SCORE.SYSTEM.CONST>
0

>  <SCORE.SYSTEM.DIHEDRAL>
0

>  <SCORE.SYSTEM.SOLV>
0

>  <SCORE.SYSTEM.norm>
0

>  <SCORE.heavy>
26

>  <SCORE.norm>
-0.336688

>  <RMSD>
24.511

$$$$
ligand
 OpenBabel11021811423D
libRbt.so/2013.1/901 2013/11/27
 26 27  0  0  0  0  0  0  0  0999 V2000
   -7.2392   -8.4604  -74.7930 C   0  0  0  0  0  0  0  0  0  0  0  0
  -12.8785   -8.9820  -79.1262 C   0  0  0  0  0  0  0  0  0  0  0  0
  -14.2505  -11.9987  -74.8579 P   0  0  2  0  0  0  0  0  0  0  0  0
  -12.3604  -10.0271  -74.3991 P   0  0  2  0  0  0  0  0  0  0  0  0
  -11.7246   -6.4079  -77.7141 C   0  0  0  0  0  0  0  0  0  0  0  0
  -10.7172   -7.7406  -75.8785 C   0  0  0  0  0  0  0  0  0  0  0  0
  -10.5176   -6.9010  -76.9668 C   0  0  0  0  0  0  0  0  0  0  0  0
   -9.2089   -6.5959  -77.3522 C   0  0  0  0  0  0  0  0  0  0  0  0
   -8.8949   -5.8140  -78.3855 N   0  0  0  0  0  0  0  0  0  0  0  0
   -8.1647   -7.1179  -76.6336 N   0  0  0  0  0  0  0  0  0  0  0  0
   -8.3927   -7.9255  -75.5551 C   0  0  0  0  0  0  0  0  0  0  0  0
   -9.6528   -8.2507  -75.1665 N   0  0  0  0  0  0  0  0  0  0  0  0
  -15.3789  -12.6550  -74.0871 O   0  5  0  0  0  0  0  0  0  0  0  0
  -12.9159   -9.3580  -75.6361 O   0  0  0  0  0  0  0  0  0  0  0  0
  -15.1836   -7.5753  -76.2853 S   0  0  0  0  0  0  0  0  0  0  0  0
  -13.8342   -6.6731  -76.4318 C   0  0  0  0  0  0  0  0  0  0  0  0
  -13.4349  -13.1331  -75.4725 O   0  0  0  0  0  0  0  0  0  0  0  0
  -11.1572  -10.8905  -74.7191 O   0  5  0  0  0  0  0  0  0  0  0  0
  -12.9532   -7.1005  -77.4072 N   0  0  0  0  0  0  0  0  0  0  0  0
  -13.5007  -10.9921  -73.8428 O   0  0  0  0  0  0  0  0  0  0  0  0
  -11.9929   -8.9483  -73.4006 O   0  0  0  0  0  0  0  0  0  0  0  0
  -13.4790   -8.2124  -78.0177 C   0  0  1  0  0  0  0  0  0  0  0  0
  -14.7235   -8.5506  -77.4634 C   0  0  2  0  0  0  0  0  0  0  0  0
  -15.7496   -9.6256  -77.7240 C   0  0  0  0  0  0  0  0  0  0  0  0
  -15.2963  -10.9766  -77.1602 C   0  0  0  0  0  0  0  0  0  0  0  0
  -14.8880  -10.8117  -75.8078 O   0  0  0  0  0  0  0  0  0  0  0  0
  1 11  1  0  0  0  0
  3 13  1  1  0  0  0
  3 17  2  0  0  0  0
  3 20  1  0  0  0  0
  3 26  1  0  0  0  0
  4 14  1  6  0  0  0
  4 18  1  0  0  0  0
  4 21  2  0  0  0  0
  4 20  1  0  0  0  0
  5 19  1  0  0  0  0
  5  7  1  0  0  0  0
  6  7  2  0  0  0  0
  6 12  1  0  0  0  0
  7  8  1  0  0  0  0
  8  9  1  0  0  0  0
  8 10  2  0  0  0  0
 10 11  1  0  0  0  0
 11 12  2  0  0  0  0
 15 23  1  0  0  0  0
 15 16  1  0  0  0  0
 16 19  1  0  0  0  0
 19 22  1  0  0  0  0
 22  2  1  6  0  0  0
 22 23  1  0  0  0  0
 23 24  1  6  0  0  0
 24 25  1  0  0  0  0
 25 26  1  0  0  0  0
M  CHG  2  13  -1  18  -1
M  END
>  <CHROM.1>
-173.33680232,92.53448585,-13.44912013,48.59132104,-104.62877807,50.15733568
-176.38739371,-92.75793618,-12.51052969,-9.13956864,-75.97935554,-0.62683330
0.28998866,2.46646088

>  <Name>
ligand

>  <RI>
0

>  <Rbt.Current_Directory>
/home/itssahil/PROJECTS/Mol_Feturizer/New_Systems/rnas/2CKY

>  <Rbt.Executable>
rbdock ($Id: //depot/dev/client3/rdock/2013.1/src/exe/rbdock.cxx#4 $)

>  <Rbt.Library>
libRbt.so (2013.1, Build901 2013/11/27)

>  <Rbt.Parameter_File>
/export/apps/rDock/src/rDock_2013.1_src/data/scripts/dock_solv.prm

>  <Rbt.Receptor>
prm/blind_docking_80.prm

>  <SCORE>
-9.95729

>  <SCORE.INTER>
-4.71792

>  <SCORE.INTER.CONST>
1

>  <SCORE.INTER.POLAR>
0

>  <SCORE.INTER.ROT>
8

>  <SCORE.INTER.SOLV>
15.2812

>  <SCORE.INTER.VDW>
-17.1723

>  <SCORE.INTER.norm>
-0.181458

>  <SCORE.INTRA>
-7.76528

>  <SCORE.INTRA.DIHEDRAL>
-9.83031

>  <SCORE.INTRA.DIHEDRAL.0>
16.4846

>  <SCORE.INTRA.POLAR>
0

>  <SCORE.INTRA.POLAR.0>
0

>  <SCORE.INTRA.REPUL>
0

>  <SCORE.INTRA.REPUL.0>
0

>  <SCORE.INTRA.SOLV>
0.225451

>  <SCORE.INTRA.SOLV.lig_0>
-82.6983

>  <SCORE.INTRA.VDW>
-2.96285

>  <SCORE.INTRA.VDW.0>
-2.11466

>  <SCORE.INTRA.norm>
-0.298665

>  <SCORE.RESTR>
2.52591

>  <SCORE.RESTR.CAVITY>
2.52591

>  <SCORE.RESTR.norm>
0.0971504

>  <SCORE.SYSTEM>
0

>  <SCORE.SYSTEM.CONST>
0

>  <SCORE.SYSTEM.DIHEDRAL>
0

>  <SCORE.SYSTEM.SOLV>
0

>  <SCORE.SYSTEM.norm>
0

>  <SCORE.heavy>
26

>  <SCORE.norm>
-0.382973

>  <RMSD>
24.537

$$$$
ligand
 OpenBabel11021811423D
libRbt.so/2013.1/901 2013/11/27
 26 27  0  0  0  0  0  0  0  0999 V2000
   -6.0331   -7.0062  -76.4895 C   0  0  0  0  0  0  0  0  0  0  0  0
  -11.5332   -7.9864  -76.4162 C   0  0  0  0  0  0  0  0  0  0  0  0
  -15.7664  -11.8761  -75.7920 P   0  0  2  0  0  0  0  0  0  0  0  0
  -13.5792  -12.6349  -74.2719 P   0  0  2  0  0  0  0  0  0  0  0  0
  -11.3344   -4.9202  -77.1303 C   0  0  0  0  0  0  0  0  0  0  0  0
   -9.4382   -5.7239  -75.7450 C   0  0  0  0  0  0  0  0  0  0  0  0
   -9.9304   -5.4436  -77.0131 C   0  0  0  0  0  0  0  0  0  0  0  0
   -9.1242   -5.7099  -78.1237 C   0  0  0  0  0  0  0  0  0  0  0  0
   -9.4933   -5.4946  -79.3867 N   0  0  0  0  0  0  0  0  0  0  0  0
   -7.8672   -6.2203  -77.9265 N   0  0  0  0  0  0  0  0  0  0  0  0
   -7.4030   -6.4675  -76.6653 C   0  0  0  0  0  0  0  0  0  0  0  0
   -8.1692   -6.2323  -75.5688 N   0  0  0  0  0  0  0  0  0  0  0  0
  -17.0270  -11.2678  -75.2097 O   0  5  0  0  0  0  0  0  0  0  0  0
  -13.1750  -13.4620  -75.4715 O   0  0  0  0  0  0  0  0  0  0  0  0
  -14.2290   -6.7911  -78.9982 S   0  0  0  0  0  0  0  0  0  0  0  0
  -13.2776   -5.5489  -78.5423 C   0  0  0  0  0  0  0  0  0  0  0  0
  -16.0660  -13.3569  -76.0095 O   0  0  0  0  0  0  0  0  0  0  0  0
  -14.3612  -13.4517  -73.2634 O   0  5  0  0  0  0  0  0  0  0  0  0
  -12.2988   -5.8746  -77.6224 N   0  0  0  0  0  0  0  0  0  0  0  0
  -14.5489  -11.4878  -74.8056 O   0  0  0  0  0  0  0  0  0  0  0  0
  -12.3233  -12.0685  -73.6412 O   0  0  0  0  0  0  0  0  0  0  0  0
  -12.3939   -7.2140  -77.3351 C   0  0  1  0  0  0  0  0  0  0  0  0
  -13.4381   -7.8116  -78.0582 C   0  0  2  0  0  0  0  0  0  0  0  0
  -13.9947   -9.2097  -78.1679 C   0  0  0  0  0  0  0  0  0  0  0  0
  -14.7980   -9.5890  -76.9192 C   0  0  0  0  0  0  0  0  0  0  0  0
  -15.2588  -10.9289  -77.0421 O   0  0  0  0  0  0  0  0  0  0  0  0
  1 11  1  0  0  0  0
  3 13  1  1  0  0  0
  3 17  2  0  0  0  0
  3 20  1  0  0  0  0
  3 26  1  0  0  0  0
  4 14  1  6  0  0  0
  4 18  1  0  0  0  0
  4 21  2  0  0  0  0
  4 20  1  0  0  0  0
  5 19  1  0  0  0  0
  5  7  1  0  0  0  0
  6  7  2  0  0  0  0
  6 12  1  0  0  0  0
  7  8  1  0  0  0  0
  8  9  1  0  0  0  0
  8 10  2  0  0  0  0
 10 11  1  0  0  0  0
 11 12  2  0  0  0  0
 15 23  1  0  0  0  0
 15 16  1  0  0  0  0
 16 19  1  0  0  0  0
 19 22  1  0  0  0  0
 22  2  1  6  0  0  0
 22 23  1  0  0  0  0
 23 24  1  6  0  0  0
 24 25  1  0  0  0  0
 25 26  1  0  0  0  0
M  CHG  2  13  -1  18  -1
M  END
>  <CHROM.1>
128.72998297,-138.11677758,-105.66810563,48.07850538,-106.41725043,-177.74931469
161.20973827,65.30318692,-12.59257718,-9.01968343,-76.49972672,-0.84861906
0.30633184,2.53525242

>  <Name>
ligand

>  <RI>
0

>  <Rbt.Current_Directory>
/home/itssahil/PROJECTS/Mol_Feturizer/New_Systems/rnas/2CKY

>  <Rbt.Executable>
rbdock ($Id: //depot/dev/client3/rdock/2013.1/src/exe/rbdock.cxx#4 $)

>  <Rbt.Library>
libRbt.so (2013.1, Build901 2013/11/27)

>  <Rbt.Parameter_File>
/export/apps/rDock/src/rDock_2013.1_src/data/scripts/dock_solv.prm

>  <Rbt.Receptor>
prm/blind_docking_80.prm

>  <SCORE>
-9.29687

>  <SCORE.INTER>
-9.34536

>  <SCORE.INTER.CONST>
1

>  <SCORE.INTER.POLAR>
0

>  <SCORE.INTER.ROT>
8

>  <SCORE.INTER.SOLV>
13.3784

>  <SCORE.INTER.VDW>
-19.623

>  <SCORE.INTER.norm>
-0.359437

>  <SCORE.INTRA>
-4.49213

>  <SCORE.INTRA.DIHEDRAL>
-7.47553

>  <SCORE.INTRA.DIHEDRAL.0>
16.4846

>  <SCORE.INTRA.POLAR>
0

>  <SCORE.INTRA.POLAR.0>
0

>  <SCORE.INTRA.REPUL>
0

>  <SCORE.INTRA.REPUL.0>
0

>  <SCORE.INTRA.SOLV>
0.574107

>  <SCORE.INTRA.SOLV.lig_0>
-82.6983

>  <SCORE.INTRA.VDW>
-1.04142

>  <SCORE.INTRA.VDW.0>
-2.11466

>  <SCORE.INTRA.norm>
-0.172774

>  <SCORE.RESTR>
4.54061

>  <SCORE.RESTR.CAVITY>
4.54061

>  <SCORE.RESTR.norm>
0.174639

>  <SCORE.SYSTEM>
0

>  <SCORE.SYSTEM.CONST>
0

>  <SCORE.SYSTEM.DIHEDRAL>
0

>  <SCORE.SYSTEM.SOLV>
0

>  <SCORE.SYSTEM.norm>
0

>  <SCORE.heavy>
26

>  <SCORE.norm>
-0.357572

>  <RMSD>
24.577

$$$$
ligand
 OpenBabel11021811423D
libRbt.so/2013.1/901 2013/11/27
 26 27  0  0  0  0  0  0  0  0999 V2000
  -12.5519   -3.9803  -78.7046 C   0  0  0  0  0  0  0  0  0  0  0  0
  -11.1467   -8.6339  -76.3634 C   0  0  0  0  0  0  0  0  0  0  0  0
  -13.7623  -11.6236  -74.8515 P   0  0  2  0  0  0  0  0  0  0  0  0
  -16.0976  -12.7840  -75.7845 P   0  0  2  0  0  0  0  0  0  0  0  0
   -8.3229   -7.2555  -76.6420 C   0  0  0  0  0  0  0  0  0  0  0  0
   -9.9047   -5.3490  -76.4882 C   0  0  0  0  0  0  0  0  0  0  0  0
   -9.4492   -6.4417  -77.2146 C   0  0  0  0  0  0  0  0  0  0  0  0
  -10.0167   -6.7045  -78.4648 C   0  0  0  0  0  0  0  0  0  0  0  0
   -9.6528   -7.7143  -79.2558 N   0  0  0  0  0  0  0  0  0  0  0  0
  -11.0173   -5.8888  -78.9262 N   0  0  0  0  0  0  0  0  0  0  0  0
  -11.4582   -4.8324  -78.1800 C   0  0  0  0  0  0  0  0  0  0  0  0
  -10.9156   -4.5445  -76.9686 N   0  0  0  0  0  0  0  0  0  0  0  0
  -14.4917  -11.2028  -73.5909 O   0  5  0  0  0  0  0  0  0  0  0  0
  -16.2560  -11.6130  -76.7281 O   0  0  0  0  0  0  0  0  0  0  0  0
   -8.5538   -9.7919  -73.6618 S   0  0  0  0  0  0  0  0  0  0  0  0
   -7.8824   -8.7084  -74.6774 C   0  0  0  0  0  0  0  0  0  0  0  0
  -13.6595  -10.3754  -75.7240 O   0  0  0  0  0  0  0  0  0  0  0  0
  -16.8224  -12.5524  -74.4743 O   0  5  0  0  0  0  0  0  0  0  0  0
   -8.7227   -8.2481  -75.6734 N   0  0  0  0  0  0  0  0  0  0  0  0
  -14.5434  -12.9029  -75.4508 O   0  0  0  0  0  0  0  0  0  0  0  0
  -16.6264  -14.0247  -76.4750 O   0  0  0  0  0  0  0  0  0  0  0  0
   -9.9486   -8.8493  -75.5269 C   0  0  1  0  0  0  0  0  0  0  0  0
   -9.9530   -9.7235  -74.4287 C   0  0  2  0  0  0  0  0  0  0  0  0
  -10.9812  -10.6207  -73.7848 C   0  0  0  0  0  0  0  0  0  0  0  0
  -11.0781  -11.9670  -74.5104 C   0  0  0  0  0  0  0  0  0  0  0  0
  -12.4092  -12.4594  -74.4177 O   0  0  0  0  0  0  0  0  0  0  0  0
  1 11  1  0  0  0  0
  3 13  1  1  0  0  0
  3 17  2  0  0  0  0
  3 20  1  0  0  0  0
  3 26  1  0  0  0  0
  4 14  1  6  0  0  0
  4 18  1  0  0  0  0
  4 21  2  0  0  0  0
  4 20  1  0  0  0  0
  5 19  1  0  0  0  0
  5  7  1  0  0  0  0
  6  7  2  0  0  0  0
  6 12  1  0  0  0  0
  7  8  1  0  0  0  0
  8  9  1  0  0  0  0
  8 10  2  0  0  0  0
 10 11  1  0  0  0  0
 11 12  2  0  0  0  0
 15 23  1  0  0  0  0
 15 16  1  0  0  0  0
 16 19  1  0  0  0  0
 19 22  1  0  0  0  0
 22  2  1  1  0  0  0
 22 23  1  0  0  0  0
 23 24  1  1  0  0  0
 24 25  1  0  0  0  0
 25 26  1  0  0  0  0
M  CHG  2  13  -1  18  -1
M  END
>  <CHROM.1>
56.38924613,-153.59527101,82.85077355,55.38232098,-97.42037270,-148.67598784
53.35506937,-106.93921393,-12.06712464,-9.60605944,-75.84486405,0.79168635
-0.36543351,-0.62192715

>  <Name>
ligand

>  <RI>
0

>  <Rbt.Current_Directory>
/home/itssahil/PROJECTS/Mol_Feturizer/New_Systems/rnas/2CKY

>  <Rbt.Executable>
rbdock ($Id: //depot/dev/client3/rdock/2013.1/src/exe/rbdock.cxx#4 $)

>  <Rbt.Library>
libRbt.so (2013.1, Build901 2013/11/27)

>  <Rbt.Parameter_File>
/export/apps/rDock/src/rDock_2013.1_src/data/scripts/dock_solv.prm

>  <Rbt.Receptor>
prm/blind_docking_80.prm

>  <SCORE>
-7.54279

>  <SCORE.INTER>
-11.5852

>  <SCORE.INTER.CONST>
1

>  <SCORE.INTER.POLAR>
0

>  <SCORE.INTER.ROT>
8

>  <SCORE.INTER.SOLV>
12.0059

>  <SCORE.INTER.VDW>
-20.6588

>  <SCORE.INTER.norm>
-0.445583

>  <SCORE.INTRA>
-1.2076

>  <SCORE.INTRA.DIHEDRAL>
-6.2925

>  <SCORE.INTRA.DIHEDRAL.0>
16.4846

>  <SCORE.INTRA.POLAR>
0

>  <SCORE.INTRA.POLAR.0>
0

>  <SCORE.INTRA.REPUL>
0

>  <SCORE.INTRA.REPUL.0>
0

>  <SCORE.INTRA.SOLV>
4.35648

>  <SCORE.INTRA.SOLV.lig_0>
-82.6983

>  <SCORE.INTRA.VDW>
-0.239586

>  <SCORE.INTRA.VDW.0>
-2.11466

>  <SCORE.INTRA.norm>
-0.046446

>  <SCORE.RESTR>
5.24998

>  <SCORE.RESTR.CAVITY>
5.24998

>  <SCORE.RESTR.norm>
0.201922

>  <SCORE.SYSTEM>
0

>  <SCORE.SYSTEM.CONST>
0

>  <SCORE.SYSTEM.DIHEDRAL>
0

>  <SCORE.SYSTEM.SOLV>
0

>  <SCORE.SYSTEM.norm>
0

>  <SCORE.heavy>
26

>  <SCORE.norm>
-0.290107

>  <RMSD>
24.674

$$$$
ligand
 OpenBabel11021811423D
libRbt.so/2013.1/901 2013/11/27
 26 27  0  0  0  0  0  0  0  0999 V2000
   -7.4826   -7.0211  -75.9487 C   0  0  0  0  0  0  0  0  0  0  0  0
  -14.7473   -7.1973  -75.7562 C   0  0  0  0  0  0  0  0  0  0  0  0
  -13.6135  -12.2231  -74.6676 P   0  0  2  0  0  0  0  0  0  0  0  0
  -12.1411   -9.8806  -74.5425 P   0  0  2  0  0  0  0  0  0  0  0  0
  -12.7713   -6.1838  -77.9966 C   0  0  0  0  0  0  0  0  0  0  0  0
  -10.6954   -5.4071  -76.8796 C   0  0  0  0  0  0  0  0  0  0  0  0
  -11.3785   -6.4469  -77.4970 C   0  0  0  0  0  0  0  0  0  0  0  0
  -10.7669   -7.7013  -77.5785 C   0  0  0  0  0  0  0  0  0  0  0  0
  -11.3291   -8.7745  -78.1353 N   0  0  0  0  0  0  0  0  0  0  0  0
   -9.5060   -7.8616  -77.0649 N   0  0  0  0  0  0  0  0  0  0  0  0
   -8.8509   -6.8145  -76.4804 C   0  0  0  0  0  0  0  0  0  0  0  0
   -9.4259   -5.5886  -76.3742 N   0  0  0  0  0  0  0  0  0  0  0  0
  -13.8518  -12.2309  -73.1706 O   0  5  0  0  0  0  0  0  0  0  0  0
  -12.5350   -9.0959  -75.7736 O   0  0  0  0  0  0  0  0  0  0  0  0
  -14.6632   -9.4860  -78.9371 S   0  0  0  0  0  0  0  0  0  0  0  0
  -13.6590   -8.2148  -79.1155 C   0  0  0  0  0  0  0  0  0  0  0  0
  -13.6938  -13.6780  -75.1220 O   0  0  0  0  0  0  0  0  0  0  0  0
  -10.7082   -9.6049  -74.1346 O   0  5  0  0  0  0  0  0  0  0  0  0
  -13.6288   -7.3439  -78.0427 N   0  0  0  0  0  0  0  0  0  0  0  0
  -12.2348  -11.4246  -74.9277 O   0  0  0  0  0  0  0  0  0  0  0  0
  -13.0944   -9.5163  -73.4225 O   0  0  0  0  0  0  0  0  0  0  0  0
  -14.4844   -7.8090  -77.0747 C   0  0  1  0  0  0  0  0  0  0  0  0
  -15.1037   -9.0017  -77.4803 C   0  0  2  0  0  0  0  0  0  0  0  0
  -16.0938   -9.9541  -76.8566 C   0  0  0  0  0  0  0  0  0  0  0  0
  -15.4265  -11.2793  -76.4735 C   0  0  0  0  0  0  0  0  0  0  0  0
  -14.5848  -11.0763  -75.3451 O   0  0  0  0  0  0  0  0  0  0  0  0
  1 11  1  0  0  0  0
  3 13  1  1  0  0  0
  3 17  2  0  0  0  0
  3 20  1  0  0  0  0
  3 26  1  0  0  0  0
  4 14  1  6  0  0  0
  4 18  1  0  0  0  0
  4 21  2  0  0  0  0
  4 20  1  0  0  0  0
  5 19  1  0  0  0  0
  5  7  1  0  0  0  0
  6  7  2  0  0  0  0
  6 12  1  0  0  0  0
  7  8  1  0  0  0  0
  8  9  1  0  0  0  0
  8 10  2  0  0  0  0
 10 11  1  0  0  0  0
 11 12  2  0  0  0  0
 15 23  1  0  0  0  0
 15 16  1  0  0  0  0
 16 19  1  0  0  0  0
 19 22  1  0  0  0  0
 22  2  1  1  0  0  0
 22 23  1  0  0  0  0
 23 24  1  1  0  0  0
 24 25  1  0  0  0  0
 25 26  1  0  0  0  0
M  CHG  2  13  -1  18  -1
M  END
>  <CHROM.1>
-63.65065652,-85.41695979,-152.52281108,-91.57331329,70.62298905,72.00855186
-176.13328729,-130.85393673,-12.69422961,-9.19184606,-76.21129896,-0.84585759
0.45611527,2.40670678

>  <Name>
ligand

>  <RI>
0

>  <Rbt.Current_Directory>
/home/itssahil/PROJECTS/Mol_Feturizer/New_Systems/rnas/2CKY

>  <Rbt.Executable>
rbdock ($Id: //depot/dev/client3/rdock/2013.1/src/exe/rbdock.cxx#4 $)

>  <Rbt.Library>
libRbt.so (2013.1, Build901 2013/11/27)

>  <Rbt.Parameter_File>
/export/apps/rDock/src/rDock_2013.1_src/data/scripts/dock_solv.prm

>  <Rbt.Receptor>
prm/blind_docking_80.prm

>  <SCORE>
-13.8054

>  <SCORE.INTER>
-14.215

>  <SCORE.INTER.CONST>
1

>  <SCORE.INTER.POLAR>
0

>  <SCORE.INTER.ROT>
8

>  <SCORE.INTER.SOLV>
12.7046

>  <SCORE.INTER.VDW>
-22.6448

>  <SCORE.INTER.norm>
-0.546729

>  <SCORE.INTRA>
-2.37544

>  <SCORE.INTRA.DIHEDRAL>
-7.02231

>  <SCORE.INTRA.DIHEDRAL.0>
16.4846

>  <SCORE.INTRA.POLAR>
0

>  <SCORE.INTRA.POLAR.0>
0

>  <SCORE.INTRA.REPUL>
0

>  <SCORE.INTRA.REPUL.0>
0

>  <SCORE.INTRA.SOLV>
7.23586

>  <SCORE.INTRA.SOLV.lig_0>
-82.6983

>  <SCORE.INTRA.VDW>
-2.48222

>  <SCORE.INTRA.VDW.0>
-2.11466

>  <SCORE.INTRA.norm>
-0.0913631

>  <SCORE.RESTR>
2.78496

>  <SCORE.RESTR.CAVITY>
2.78496

>  <SCORE.RESTR.norm>
0.107114

>  <SCORE.SYSTEM>
0

>  <SCORE.SYSTEM.CONST>
0

>  <SCORE.SYSTEM.DIHEDRAL>
0

>  <SCORE.SYSTEM.SOLV>
0

>  <SCORE.SYSTEM.norm>
0

>  <SCORE.heavy>
26

>  <SCORE.norm>
-0.530978

>  <RMSD>
24.713

$$$$
ligand
 OpenBabel11021811423D
libRbt.so/2013.1/901 2013/11/27
 26 27  0  0  0  0  0  0  0  0999 V2000
   -9.6680   -5.6590  -78.5281 C   0  0  0  0  0  0  0  0  0  0  0  0
  -12.0989  -12.6906  -74.8567 C   0  0  0  0  0  0  0  0  0  0  0  0
  -16.1780  -10.5556  -76.7674 P   0  0  2  0  0  0  0  0  0  0  0  0
  -14.6846   -8.2284  -76.6110 P   0  0  2  0  0  0  0  0  0  0  0  0
  -10.1764  -10.1982  -75.0636 C   0  0  0  0  0  0  0  0  0  0  0  0
  -10.6961   -8.9485  -77.1441 C   0  0  0  0  0  0  0  0  0  0  0  0
   -9.9916   -8.9973  -75.9482 C   0  0  0  0  0  0  0  0  0  0  0  0
   -9.1876   -7.9099  -75.5941 C   0  0  0  0  0  0  0  0  0  0  0  0
   -8.4772   -7.8383  -74.4680 N   0  0  0  0  0  0  0  0  0  0  0  0
   -9.1040   -6.8389  -76.4457 N   0  0  0  0  0  0  0  0  0  0  0  0
   -9.7938   -6.8280  -77.6252 C   0  0  0  0  0  0  0  0  0  0  0  0
  -10.5937   -7.8638  -77.9884 N   0  0  0  0  0  0  0  0  0  0  0  0
  -15.3929  -10.8126  -78.0384 O   0  5  0  0  0  0  0  0  0  0  0  0
  -14.7014   -7.5269  -77.9505 O   0  0  0  0  0  0  0  0  0  0  0  0
  -13.4990   -9.4709  -73.1143 S   0  0  0  0  0  0  0  0  0  0  0  0
  -12.0320   -9.1829  -73.7632 C   0  0  0  0  0  0  0  0  0  0  0  0
  -17.5614  -11.1617  -76.9881 O   0  0  0  0  0  0  0  0  0  0  0  0
  -13.6029   -9.2872  -76.5443 O   0  5  0  0  0  0  0  0  0  0  0  0
  -11.4531  -10.2679  -74.3940 N   0  0  0  0  0  0  0  0  0  0  0  0
  -16.0859   -8.9734  -76.4606 O   0  0  0  0  0  0  0  0  0  0  0  0
  -14.4777   -7.1853  -75.5317 O   0  0  0  0  0  0  0  0  0  0  0  0
  -12.3100  -11.3372  -74.3042 C   0  0  1  0  0  0  0  0  0  0  0  0
  -13.4803  -10.9884  -73.6121 C   0  0  2  0  0  0  0  0  0  0  0  0
  -14.7472  -11.7122  -73.2279 C   0  0  0  0  0  0  0  0  0  0  0  0
  -15.6839  -11.8719  -74.4302 C   0  0  0  0  0  0  0  0  0  0  0  0
  -15.2548  -11.0151  -75.4812 O   0  0  0  0  0  0  0  0  0  0  0  0
  1 11  1  0  0  0  0
  3 13  1  6  0  0  0
  3 17  2  0  0  0  0
  3 20  1  0  0  0  0
  3 26  1  0  0  0  0
  4 14  1  6  0  0  0
  4 18  1  0  0  0  0
  4 21  2  0  0  0  0
  4 20  1  0  0  0  0
  5 19  1  0  0  0  0
  5  7  1  0  0  0  0
  6  7  2  0  0  0  0
  6 12  1  0  0  0  0
  7  8  1  0  0  0  0
  8  9  1  0  0  0  0
  8 10  2  0  0  0  0
 10 11  1  0  0  0  0
 11 12  2  0  0  0  0
 15 23  1  0  0  0  0
 15 16  1  0  0  0  0
 16 19  1  0  0  0  0
 19 22  1  0  0  0  0
 22  2  1  6  0  0  0
 22 23  1  0  0  0  0
 23 24  1  6  0  0  0
 24 25  1  0  0  0  0
 25 26  1  0  0  0  0
M  CHG  2  13  -1  18  -1
M  END
>  <CHROM.1>
-43.86663277,-45.24133219,-72.06273316,99.89303412,103.55179365,-14.29728866
-162.11261750,-129.30701421,-13.11286047,-9.37486303,-75.80603384,0.36207802
-0.30672061,-0.85741499

>  <Name>
ligand

>  <RI>
0

>  <Rbt.Current_Directory>
/home/itssahil/PROJECTS/Mol_Feturizer/New_Systems/rnas/2CKY

>  <Rbt.Executable>
rbdock ($Id: //depot/dev/client3/rdock/2013.1/src/exe/rbdock.cxx#4 $)

>  <Rbt.Library>
libRbt.so (2013.1, Build901 2013/11/27)

>  <Rbt.Parameter_File>
/export/apps/rDock/src/rDock_2013.1_src/data/scripts/dock_solv.prm

>  <Rbt.Receptor>
prm/blind_docking_80.prm

>  <SCORE>
-4.8849

>  <SCORE.INTER>
-6.02788

>  <SCORE.INTER.CONST>
1

>  <SCORE.INTER.POLAR>
0

>  <SCORE.INTER.ROT>
8

>  <SCORE.INTER.SOLV>
22.3211

>  <SCORE.INTER.VDW>
-20.3923

>  <SCORE.INTER.norm>
-0.231841

>  <SCORE.INTRA>
-2.00925

>  <SCORE.INTRA.DIHEDRAL>
-1.21775

>  <SCORE.INTRA.DIHEDRAL.0>
16.4846

>  <SCORE.INTRA.POLAR>
0

>  <SCORE.INTRA.POLAR.0>
0

>  <SCORE.INTRA.REPUL>
0

>  <SCORE.INTRA.REPUL.0>
0

>  <SCORE.INTRA.SOLV>
4.08023

>  <SCORE.INTRA.SOLV.lig_0>
-82.6983

>  <SCORE.INTRA.VDW>
-3.44049

>  <SCORE.INTRA.VDW.0>
-2.11466

>  <SCORE.INTRA.norm>
-0.0772788

>  <SCORE.RESTR>
3.15223

>  <SCORE.RESTR.CAVITY>
3.15223

>  <SCORE.RESTR.norm>
0.12124

>  <SCORE.SYSTEM>
0

>  <SCORE.SYSTEM.CONST>
0

>  <SCORE.SYSTEM.DIHEDRAL>
0

>  <SCORE.SYSTEM.SOLV>
0

>  <SCORE.SYSTEM.norm>
0

>  <SCORE.heavy>
26

>  <SCORE.norm>
-0.187881

>  <RMSD>
24.754

$$$$
ligand
 OpenBabel11021811423D
libRbt.so/2013.1/901 2013/11/27
 26 27  0  0  0  0  0  0  0  0999 V2000
   -6.6820   -6.3593  -79.4265 C   0  0  0  0  0  0  0  0  0  0  0  0
  -10.8116   -8.1923  -76.5584 C   0  0  0  0  0  0  0  0  0  0  0  0
  -16.0686  -10.9416  -76.6322 P   0  0  2  0  0  0  0  0  0  0  0  0
  -16.1298  -12.7719  -74.5544 P   0  0  2  0  0  0  0  0  0  0  0  0
   -9.3526   -6.4696  -74.3550 C   0  0  0  0  0  0  0  0  0  0  0  0
   -7.5006   -7.1030  -75.8811 C   0  0  0  0  0  0  0  0  0  0  0  0
   -8.6780   -6.3901  -75.6956 C   0  0  0  0  0  0  0  0  0  0  0  0
   -9.2118   -5.6772  -76.7732 C   0  0  0  0  0  0  0  0  0  0  0  0
  -10.3400   -4.9687  -76.7179 N   0  0  0  0  0  0  0  0  0  0  0  0
   -8.5476   -5.6875  -77.9724 N   0  0  0  0  0  0  0  0  0  0  0  0
   -7.3803   -6.3825  -78.1191 C   0  0  0  0  0  0  0  0  0  0  0  0
   -6.8460   -7.0957  -77.0942 N   0  0  0  0  0  0  0  0  0  0  0  0
  -16.4361   -9.4822  -76.8142 O   0  5  0  0  0  0  0  0  0  0  0  0
  -14.7941  -12.4892  -73.9045 O   0  0  0  0  0  0  0  0  0  0  0  0
  -11.4243   -9.4636  -72.9017 S   0  0  0  0  0  0  0  0  0  0  0  0
  -10.4463   -8.1599  -72.9019 C   0  0  0  0  0  0  0  0  0  0  0  0
  -16.5860  -11.6714  -77.8690 O   0  0  0  0  0  0  0  0  0  0  0  0
  -16.0047  -13.7736  -75.6843 O   0  5  0  0  0  0  0  0  0  0  0  0
  -10.1655   -7.6451  -74.1534 N   0  0  0  0  0  0  0  0  0  0  0  0
  -16.6344  -11.4005  -75.1915 O   0  0  0  0  0  0  0  0  0  0  0  0
  -17.0769  -13.2849  -73.4887 O   0  0  0  0  0  0  0  0  0  0  0  0
  -10.8193   -8.3999  -75.0960 C   0  0  1  0  0  0  0  0  0  0  0  0
  -11.5518   -9.4347  -74.4935 C   0  0  2  0  0  0  0  0  0  0  0  0
  -12.4509  -10.5370  -74.9966 C   0  0  0  0  0  0  0  0  0  0  0  0
  -13.7230   -9.9700  -75.6356 C   0  0  0  0  0  0  0  0  0  0  0  0
  -14.4782  -11.0308  -76.2077 O   0  0  0  0  0  0  0  0  0  0  0  0
  1 11  1  0  0  0  0
  3 13  1  6  0  0  0
  3 17  2  0  0  0  0
  3 20  1  0  0  0  0
  3 26  1  0  0  0  0
  4 14  1  1  0  0  0
  4 18  1  0  0  0  0
  4 21  2  0  0  0  0
  4 20  1  0  0  0  0
  5 19  1  0  0  0  0
  5  7  1  0  0  0  0
  6  7  2  0  0  0  0
  6 12  1  0  0  0  0
  7  8  1  0  0  0  0
  8  9  1  0  0  0  0
  8 10  2  0  0  0  0
 10 11  1  0  0  0  0
 11 12  2  0  0  0  0
 15 23  1  0  0  0  0
 15 16  1  0  0  0  0
 16 19  1  0  0  0  0
 19 22  1  0  0  0  0
 22  2  1  1  0  0  0
 22 23  1  0  0  0  0
 23 24  1  1  0  0  0
 24 25  1  0  0  0  0
 25 26  1  0  0  0  0
M  CHG  2  13  -1  18  -1
M  END
>  <CHROM.1>
-166.01390871,154.99365487,-81.32197562,81.61485293,114.20273020,174.49741059
162.83691215,21.16500622,-12.45076647,-9.42007813,-75.61345198,0.31664270
-0.56584604,-1.25527025

>  <Name>
ligand

>  <RI>
0

>  <Rbt.Current_Directory>
/home/itssahil/PROJECTS/Mol_Feturizer/New_Systems/rnas/2CKY

>  <Rbt.Executable>
rbdock ($Id: //depot/dev/client3/rdock/2013.1/src/exe/rbdock.cxx#4 $)

>  <Rbt.Library>
libRbt.so (2013.1, Build901 2013/11/27)

>  <Rbt.Parameter_File>
/export/apps/rDock/src/rDock_2013.1_src/data/scripts/dock_solv.prm

>  <Rbt.Receptor>
prm/blind_docking_80.prm

>  <SCORE>
-3.80887

>  <SCORE.INTER>
-6.36554

>  <SCORE.INTER.CONST>
1

>  <SCORE.INTER.POLAR>
0

>  <SCORE.INTER.ROT>
8

>  <SCORE.INTER.SOLV>
23.2747

>  <SCORE.INTER.VDW>
-20.9352

>  <SCORE.INTER.norm>
-0.244828

>  <SCORE.INTRA>
-3.39943

>  <SCORE.INTRA.DIHEDRAL>
-8.27649

>  <SCORE.INTRA.DIHEDRAL.0>
16.4846

>  <SCORE.INTRA.POLAR>
0

>  <SCORE.INTRA.POLAR.0>
0

>  <SCORE.INTRA.REPUL>
0

>  <SCORE.INTRA.REPUL.0>
0

>  <SCORE.INTRA.SOLV>
1.62628

>  <SCORE.INTRA.SOLV.lig_0>
-82.6983

>  <SCORE.INTRA.VDW>
-0.0743246

>  <SCORE.INTRA.VDW.0>
-2.11466

>  <SCORE.INTRA.norm>
-0.130747

>  <SCORE.RESTR>
5.9561

>  <SCORE.RESTR.CAVITY>
5.9561

>  <SCORE.RESTR.norm>
0.229081

>  <SCORE.SYSTEM>
0

>  <SCORE.SYSTEM.CONST>
0

>  <SCORE.SYSTEM.DIHEDRAL>
0

>  <SCORE.SYSTEM.SOLV>
0

>  <SCORE.SYSTEM.norm>
0

>  <SCORE.heavy>
26

>  <SCORE.norm>
-0.146495

>  <RMSD>
24.943

$$$$
