@<TRIPOS>MOLECULE
2CKY_rdock.pdb
 1655 1852 0 0 0
SMALL
GASTEIGER

@<TRIPOS>ATOM
      1  P        -13.2850    5.2820  -88.4100 P.3     1  G1          0.1280
      2  C5'      -11.0910    6.7760  -88.7260 C.3     1  G1          0.1795
      3  O5'      -11.7330    5.4800  -88.8480 O.3     1  G1         -0.3259
      4  C4'       -9.7050    6.8050  -88.0490 C.3     1  G1          0.1772
      5  O4'       -9.5360    8.1210  -87.4230 O.3     1  G1         -0.3307
      6  C3'       -9.3630    5.8210  -86.9150 C.3     1  G1          0.1860
      7  O3'       -8.7580    4.6100  -87.4030 O.3     1  G1         -0.3112
      8  C2'       -8.4070    6.6460  -86.0280 C.3     1  G1          0.2309
      9  O2'       -7.0700    6.7310  -86.4910 O.3     1  G1         -0.2156
     10  C1'       -9.0870    8.0050  -86.0810 C.3     1  G1          0.2408
     11  N1       -10.5040    8.5780  -81.2210 N.ar    1  G1         -0.1709
     12  C2        -9.2380    8.5200  -81.7730 C.ar    1  G1          0.2606
     13  N2        -8.2170    8.6470  -80.9170 N.pl3   1  G1         -0.0859
     14  N3        -8.9780    8.3680  -83.0690 N.ar    1  G1         -0.1918
     15  C4       -10.1190    8.2700  -83.7830 C.ar    1  G1          0.1723
     16  C5       -11.4120    8.3030  -83.3320 C.ar    1  G1          0.1748
     17  C6       -11.6790    8.4640  -81.9640 C.ar    1  G1          0.3023
     18  O6       -12.7900    8.5180  -81.4140 O.2     1  G1         -0.2633
     19  N7       -12.2950    8.1590  -84.3690 N.ar    1  G1         -0.2173
     20  C8       -11.5440    8.0490  -85.4200 C.ar    1  G1          0.1817
     21  N9       -10.2040    8.1090  -85.1390 N.ar    1  G1         -0.2693
     22  OP1      -14.0410    6.5210  -88.7520 O.3     1  G1         -0.1955
     23  OP2      -13.7570    3.9230  -88.8230 O.co2   1  G1         -0.7863
     24  P         -8.2890    3.4250  -86.4180 P.3     2  G2          0.2141
     25  C5'       -6.9420    3.4860  -84.1820 C.3     2  G2          0.1812
     26  O5'       -8.0000    4.0640  -84.9700 O.3     2  G2         -0.3114
     27  C4'       -6.8030    4.0140  -82.7600 C.3     2  G2          0.1773
     28  O4'       -7.4870    5.2760  -82.5860 O.3     2  G2         -0.3307
     29  C3'       -7.4000    3.1070  -81.6970 C.3     2  G2          0.1860
     30  O3'       -6.4840    2.0880  -81.3770 O.3     2  G2         -0.3112
     31  C2'       -7.6370    4.0620  -80.5330 C.3     2  G2          0.2309
     32  O2'       -6.5100    4.4110  -79.7460 O.3     2  G2         -0.2156
     33  C1'       -8.1220    5.2680  -81.3120 C.3     2  G2          0.2408
     34  N1       -12.6710    5.4540  -79.1520 N.ar    2  G2         -0.1709
     35  C2       -11.4290    5.5210  -78.5540 C.ar    2  G2          0.2606
     36  N2       -11.4120    5.6550  -77.2210 N.pl3   2  G2         -0.0859
     37  N3       -10.2820    5.4600  -79.2150 N.ar    2  G2         -0.1918
     38  C4       -10.5020    5.3310  -80.5410 C.ar    2  G2          0.1723
     39  C5       -11.6860    5.2520  -81.2220 C.ar    2  G2          0.1748
     40  C6       -12.8850    5.3320  -80.5240 C.ar    2  G2          0.3023
     41  O6       -14.0140    5.2860  -81.0230 O.2     2  G2         -0.2633
     42  N7       -11.4990    5.1090  -82.5820 N.ar    2  G2         -0.2173
     43  C8       -10.2070    5.0990  -82.7100 C.ar    2  G2          0.1817
     44  N9        -9.5510    5.2320  -81.5130 N.ar    2  G2         -0.2693
     45  OP1       -6.9750    2.9370  -86.9060 O.2     2  G2         -0.5172
     46  OP2       -9.4400    2.4990  -86.2980 O.co2   2  G2         -0.4373
     47  P         -6.9090    0.5420  -81.3980 P.3     3  G3          0.2141
     48  C5'       -7.1380    0.8830  -78.7850 C.3     3  G3          0.1812
     49  O5'       -7.7670    0.4960  -80.0300 O.3     3  G3         -0.3114
     50  C4'       -8.1710    1.3280  -77.7780 C.3     3  G3          0.1773
     51  O4'       -9.1240    2.1130  -78.5090 O.3     3  G3         -0.3307
     52  C3'       -9.1200    0.2760  -77.2090 C.3     3  G3          0.1860
     53  O3'       -8.5190   -0.6730  -76.3060 O.3     3  G3         -0.3112
     54  C2'      -10.2380    1.1610  -76.6190 C.3     3  G3          0.2309
     55  O2'      -10.0620    1.7700  -75.3390 O.3     3  G3         -0.2156
     56  C1'      -10.3000    2.2360  -77.7100 C.3     3  G3          0.2408
     57  N1       -15.4110    2.5840  -77.7060 N.ar    3  G3         -0.1709
     58  C2       -14.5210    2.6960  -76.6620 C.ar    3  G3          0.2606
     59  N2       -15.0920    2.9260  -75.4810 N.pl3   3  G3         -0.0859
     60  N3       -13.1930    2.5740  -76.7670 N.ar    3  G3         -0.1918
     61  C4       -12.8090    2.3380  -78.0540 C.ar    3  G3          0.1723
     62  C5       -13.6060    2.2150  -79.1630 C.ar    3  G3          0.1748
     63  C6       -15.0050    2.3460  -79.0230 C.ar    3  G3          0.3023
     64  O6       -15.8560    2.2610  -79.9160 O.2     3  G3         -0.2633
     65  N7       -12.8550    1.9840  -80.2950 N.ar    3  G3         -0.2173
     66  C8       -11.6280    1.9630  -79.8710 C.ar    3  G3          0.1817
     67  N9       -11.5250    2.1730  -78.5200 N.ar    3  G3         -0.2693
     68  OP1       -5.6720   -0.2660  -81.2000 O.3     3  G3         -0.4373
     69  OP2       -7.7170    0.3320  -82.6270 O.co2   3  G3         -0.5172
     70  P         -8.6990   -2.2760  -76.5080 P.3     4  A4          0.2141
     71  C5'      -10.0320   -2.1460  -74.2490 C.3     4  A4          0.1812
     72  O5'      -10.0150   -2.5040  -75.6290 O.3     4  A4         -0.3114
     73  C4'      -11.4460   -1.8260  -73.8190 C.3     4  A4          0.1773
     74  O4'      -11.9810   -0.7950  -74.6770 O.3     4  A4         -0.3307
     75  C3'      -12.4780   -2.9350  -73.9750 C.3     4  A4          0.1860
     76  O3'      -12.2930   -3.9330  -72.9760 O.3     4  A4         -0.3112
     77  C2'      -13.7660   -2.1210  -73.8300 C.3     4  A4          0.2309
     78  O2'      -14.0650   -1.7270  -72.5010 O.3     4  A4         -0.2156
     79  C1'      -13.4020   -0.9020  -74.6780 C.3     4  A4          0.2408
     80  N1       -17.5380   -0.4760  -77.5870 N.ar    4  A4         -0.2040
     81  C2       -17.3450   -0.4110  -76.2590 C.ar    4  A4          0.2016
     82  N3       -16.2110   -0.5350  -75.5710 N.ar    4  A4         -0.2048
     83  C4       -15.1930   -0.7580  -76.4120 C.ar    4  A4          0.1692
     84  C5       -15.2220   -0.8540  -77.7930 C.ar    4  A4          0.1518
     85  C6       -16.4800   -0.7010  -78.3950 C.ar    4  A4          0.1919
     86  N6       -16.6720   -0.7680  -79.7090 N.pl3   4  A4         -0.1054
     87  N7       -13.9590   -1.0860  -78.3090 N.ar    4  A4         -0.2193
     88  C8       -13.2010   -1.1290  -77.2350 C.ar    4  A4          0.1816
     89  N9       -13.8900   -0.9410  -76.0580 N.ar    4  A4         -0.2693
     90  OP1       -7.5650   -2.9860  -75.8510 O.3     4  A4         -0.4373
     91  OP2       -9.0340   -2.5990  -77.9160 O.co2   4  A4         -0.5172
     92  P        -12.7070   -5.4450  -73.2650 P.3     5  C5          0.2141
     93  C5'      -15.0480   -5.2000  -72.0870 C.3     5  C5          0.1812
     94  O5'      -14.3050   -5.3420  -73.2900 O.3     5  C5         -0.3114
     95  C4'      -16.5230   -5.1400  -72.4140 C.3     5  C5          0.1773
     96  O4'      -16.7110   -3.9370  -73.1960 O.3     5  C5         -0.3307
     97  C3'      -17.1170   -6.2420  -73.3030 C.3     5  C5          0.1860
     98  O3'      -17.4430   -7.4790  -72.6090 O.3     5  C5         -0.3112
     99  C2'      -18.3480   -5.5070  -73.8460 C.3     5  C5          0.2309
    100  O2'      -19.4230   -5.3260  -72.9360 O.3     5  C5         -0.2156
    101  C1'      -17.7160   -4.1600  -74.1790 C.3     5  C5          0.2420
    102  N1       -17.1500   -4.1330  -75.5760 N.ar    5  C5         -0.2535
    103  C2       -18.0330   -3.9760  -76.6530 C.ar    5  C5          0.3532
    104  O2       -19.2490   -3.8590  -76.4440 O.2     5  C5         -0.2443
    105  N3       -17.5250   -3.9600  -77.9100 N.ar    5  C5         -0.1739
    106  C4       -16.2210   -4.0920  -78.1190 C.ar    5  C5          0.1759
    107  N4       -15.7980   -4.0610  -79.3770 N.pl3   5  C5         -0.1070
    108  C5       -15.3040   -4.2590  -77.0400 C.ar    5  C5          0.0566
    109  C6       -15.8030   -4.2810  -75.7980 C.ar    5  C5          0.0850
    110  OP1      -12.3330   -6.2260  -72.0590 O.3     5  C5         -0.4373
    111  OP2      -12.1960   -5.8250  -74.6060 O.co2   5  C5         -0.5172
    112  P        -17.2540   -8.9360  -73.2880 P.3     6  C6          0.2141
    113  C5'      -19.7840   -9.0870  -73.7050 C.3     6  C6          0.1812
    114  O5'      -18.4970   -8.9790  -74.2720 O.3     6  C6         -0.3114
    115  C4'      -20.7460   -8.8060  -74.8230 C.3     6  C6          0.1773
    116  O4'      -20.3090   -7.6310  -75.5190 O.3     6  C6         -0.3307
    117  C3'      -20.7450   -9.8020  -75.9620 C.3     6  C6          0.1860
    118  O3'      -21.3880  -10.9690  -75.5500 O.3     6  C6         -0.3112
    119  C2'      -21.5040   -9.0160  -77.0250 C.3     6  C6          0.2309
    120  O2'      -22.9040   -8.9210  -76.8270 O.3     6  C6         -0.2156
    121  C1'      -20.8260   -7.6670  -76.8340 C.3     6  C6          0.2420
    122  N1       -19.7190   -7.4390  -77.7940 N.ar    6  C6         -0.2535
    123  C2       -20.0870   -7.1620  -79.1160 C.ar    6  C6          0.3532
    124  O2       -21.2990   -7.1310  -79.3960 O.2     6  C6         -0.2443
    125  N3       -19.1050   -6.9390  -80.0330 N.ar    6  C6         -0.1739
    126  C4       -17.8200   -6.9830  -79.6550 C.ar    6  C6          0.1759
    127  N4       -16.8800   -6.7600  -80.5740 N.pl3   6  C6         -0.1070
    128  C5       -17.4300   -7.2600  -78.3090 C.ar    6  C6          0.0566
    129  C6       -18.4000   -7.4870  -77.4130 C.ar    6  C6          0.0850
    130  OP1      -17.5740   -9.9380  -72.2430 O.3     6  C6         -0.4373
    131  OP2      -15.9780   -9.0130  -74.0510 O.co2   6  C6         -0.5172
    132  P        -20.7260  -12.4000  -75.7620 P.3     7  A7          0.2141
    133  C5'      -22.0680  -13.0290  -77.9310 C.3     7  A7          0.1812
    134  O5'      -20.8210  -12.5950  -77.3510 O.3     7  A7         -0.3114
    135  C4'      -22.2540  -12.5340  -79.3580 C.3     7  A7          0.1773
    136  O4'      -21.7420  -11.1850  -79.4900 O.3     7  A7         -0.3307
    137  C3'      -21.4910  -13.2710  -80.4570 C.3     7  A7          0.1860
    138  O3'      -22.0540  -14.5420  -80.7860 O.3     7  A7         -0.3112
    139  C2'      -21.6160  -12.2740  -81.5950 C.3     7  A7          0.2309
    140  O2'      -22.9100  -12.2300  -82.1660 O.3     7  A7         -0.2156
    141  C1'      -21.2830  -11.0010  -80.8210 C.3     7  A7          0.2408
    142  N1       -17.3510   -9.6520  -83.7610 N.ar    7  A7         -0.2040
    143  C2       -18.6270   -9.9200  -84.0470 C.ar    7  A7          0.2016
    144  N3       -19.5910  -10.2760  -83.1960 N.ar    7  A7         -0.2048
    145  C4       -19.1390  -10.3390  -81.9290 C.ar    7  A7          0.1692
    146  C5       -17.8570  -10.0910  -81.4830 C.ar    7  A7          0.1518
    147  C6       -16.9280   -9.7290  -82.4760 C.ar    7  A7          0.1919
    148  N6       -15.6570   -9.4630  -82.1940 N.pl3   7  A7         -0.1054
    149  N7       -17.7640  -10.2640  -80.1060 N.ar    7  A7         -0.2193
    150  C8       -18.9860  -10.6100  -79.7520 C.ar    7  A7          0.1816
    151  N9       -19.8600  -10.6760  -80.8120 N.ar    7  A7         -0.2693
    152  OP1      -21.6910  -13.3240  -75.1080 O.3     7  A7         -0.4373
    153  OP2      -19.2950  -12.3620  -75.3800 O.co2   7  A7         -0.5172
    154  P        -21.0860  -15.8180  -80.9770 P.3     8  G8          0.2141
    155  C5'      -21.3870  -15.8760  -83.6240 C.3     8  G8          0.1812
    156  O5'      -20.5510  -15.6260  -82.4790 O.3     8  G8         -0.3114
    157  C4'      -20.7610  -15.2020  -84.8200 C.3     8  G8          0.1773
    158  O4'      -20.4260  -13.8510  -84.4110 O.3     8  G8         -0.3307
    159  C3'      -19.4180  -15.7710  -85.2540 C.3     8  G8          0.1860
    160  O3'      -19.4310  -16.9310  -86.0920 O.3     8  G8         -0.3112
    161  C2'      -18.8380  -14.5670  -85.9860 C.3     8  G8          0.2309
    162  O2'      -19.4420  -14.2760  -87.2380 O.3     8  G8         -0.2156
    163  C1'      -19.1630  -13.4980  -84.9530 C.3     8  G8          0.2408
    164  N1       -14.3450  -12.1550  -84.2480 N.ar    8  G8         -0.1709
    165  C2       -15.1180  -12.1580  -85.3990 C.ar    8  G8          0.2606
    166  N2       -14.5160  -11.7430  -86.5240 N.pl3   8  G8         -0.0859
    167  N3       -16.3910  -12.5570  -85.4390 N.ar    8  G8         -0.1918
    168  C4       -16.8360  -12.9460  -84.2150 C.ar    8  G8          0.1723
    169  C5       -16.1590  -12.9840  -83.0140 C.ar    8  G8          0.1748
    170  C6       -14.8040  -12.5640  -82.9860 C.ar    8  G8          0.3023
    171  O6       -14.0320  -12.5310  -82.0190 O.2     8  G8         -0.2633
    172  N7       -16.9840  -13.4540  -82.0000 N.ar    8  G8         -0.2173
    173  C8       -18.1320  -13.6810  -82.5880 C.ar    8  G8          0.1817
    174  N9       -18.1060  -13.3930  -83.9410 N.ar    8  G8         -0.2693
    175  OP1      -22.0010  -16.9800  -80.9400 O.2     8  G8         -0.5172
    176  OP2      -19.9080  -15.7580  -80.0660 O.co2   8  G8         -0.4373
    177  P        -18.0820  -17.8080  -86.0940 P.3     9  G9          0.2141
    178  C5'      -17.0660  -17.2220  -88.4600 C.3     9  G9          0.1812
    179  O5'      -17.0540  -17.0790  -87.0590 O.3     9  G9         -0.3114
    180  C4'      -15.9610  -16.3320  -88.9770 C.3     9  G9          0.1773
    181  O4'      -15.7290  -15.2910  -88.0030 O.3     9  G9         -0.3307
    182  C3'      -14.5700  -16.9260  -89.0190 C.3     9  G9          0.1860
    183  O3'      -14.3930  -17.8690  -90.0450 O.3     9  G9         -0.3112
    184  C2'      -13.7180  -15.6860  -89.2170 C.3     9  G9          0.2309
    185  O2'      -13.8130  -15.0710  -90.4970 O.3     9  G9         -0.2156
    186  C1'      -14.3880  -14.8600  -88.1350 C.3     9  G9          0.2408
    187  N1       -10.1890  -13.9250  -85.5010 N.ar    9  G9         -0.1709
    188  C2       -10.4180  -13.8110  -86.8500 C.ar    9  G9          0.2606
    189  N2        -9.3710  -13.3940  -87.5870 N.pl3   9  G9         -0.0859
    190  N3       -11.5780  -14.1070  -87.4220 N.ar    9  G9         -0.1918
    191  C4       -12.5040  -14.5110  -86.5290 C.ar    9  G9          0.1723
    192  C5       -12.3830  -14.6390  -85.1770 C.ar    9  G9          0.1748
    193  C6       -11.1520  -14.3190  -84.5890 C.ar    9  G9          0.3023
    194  O6       -10.8430  -14.3730  -83.4110 O.2     9  G9         -0.2633
    195  N7       -13.5650  -15.0820  -84.6060 N.ar    9  G9         -0.2173
    196  C8       -14.3720  -15.2150  -85.6220 C.ar    9  G9          0.1817
    197  N9       -13.7820  -14.8920  -86.8190 N.ar    9  G9         -0.2693
    198  OP1      -18.4120  -19.1330  -86.6600 O.2     9  G9         -0.5172
    199  OP2      -17.4380  -17.6780  -84.7650 O.co2   9  G9         -0.4373
    200  P        -13.8290  -19.2900  -89.5970 P.3    10  G10         0.2141
    201  C5'      -11.5760  -18.6030  -90.8280 C.3    10  G10         0.1812
    202  O5'      -12.2340  -19.1050  -89.6780 O.3    10  G10        -0.3114
    203  C4'      -10.3140  -17.9390  -90.3600 C.3    10  G10         0.1773
    204  O4'      -10.6130  -17.2280  -89.1460 O.3    10  G10        -0.3307
    205  C3'       -9.1840  -18.8260  -89.8580 C.3    10  G10         0.1860
    206  O3'       -8.5150  -19.5330  -90.8960 O.3    10  G10        -0.3112
    207  C2'       -8.2890  -17.8240  -89.1340 C.3    10  G10         0.2309
    208  O2'       -7.3580  -17.1620  -89.9790 O.3    10  G10        -0.2156
    209  C1'       -9.3700  -16.9070  -88.5450 C.3    10  G10         0.2408
    210  N1        -7.2440  -16.3670  -83.9910 N.ar   10  G10        -0.1709
    211  C2        -6.7040  -16.1130  -85.2310 C.ar   10  G10         0.2606
    212  N2        -5.4350  -15.6530  -85.2040 N.pl3  10  G10        -0.0859
    213  N3        -7.3450  -16.3020  -86.3820 N.ar   10  G10        -0.1918
    214  C4        -8.6040  -16.7560  -86.1620 C.ar   10  G10         0.1723
    215  C5        -9.2320  -17.0350  -84.9730 C.ar   10  G10         0.1748
    216  C6        -8.5420  -16.8250  -83.7800 C.ar   10  G10         0.3023
    217  O6        -8.9740  -17.0240  -82.6440 O.2    10  G10        -0.2633
    218  N7       -10.5230  -17.4820  -85.1530 N.ar   10  G10        -0.2173
    219  C8       -10.6670  -17.4670  -86.4430 C.ar   10  G10         0.1817
    220  N9        -9.5470  -17.0410  -87.1120 N.ar   10  G10        -0.2693
    221  OP1      -14.3720  -20.2380  -90.6140 O.2    10  G10        -0.5172
    222  OP2      -14.0940  -19.4710  -88.1470 O.co2  10  G10        -0.4373
    223  P         -8.6610  -21.1260  -90.9050 P.3    11  G11         0.2141
    224  C5'       -6.2500  -20.9860  -91.9730 C.3    11  G11         0.1812
    225  O5'       -7.1630  -21.6360  -91.1110 O.3    11  G11        -0.3114
    226  C4'       -5.1560  -20.3620  -91.1400 C.3    11  G11         0.1773
    227  O4'       -5.7180  -19.6800  -90.0100 O.3    11  G11        -0.3307
    228  C3'       -4.2790  -21.3660  -90.4350 C.3    11  G11         0.1860
    229  O3'       -3.4260  -22.0430  -91.3800 O.3    11  G11        -0.3112
    230  C2'       -3.5760  -20.5050  -89.3930 C.3    11  G11         0.2309
    231  O2'       -2.4370  -19.8660  -89.9090 O.3    11  G11        -0.2156
    232  C1'       -4.6880  -19.5270  -89.0510 C.3    11  G11         0.2408
    233  N1        -4.7580  -18.7700  -83.9970 N.ar   11  G11        -0.1709
    234  C2        -3.7850  -18.3840  -84.9000 C.ar   11  G11         0.2606
    235  N2        -2.7340  -17.7420  -84.3540 N.pl3  11  G11        -0.0859
    236  N3        -3.8500  -18.6390  -86.2150 N.ar   11  G11        -0.1918
    237  C4        -4.9900  -19.3010  -86.5420 C.ar   11  G11         0.1723
    238  C5        -6.0120  -19.7120  -85.7100 C.ar   11  G11         0.1748
    239  C6        -5.9380  -19.4390  -84.3340 C.ar   11  G11         0.3023
    240  O6        -6.7520  -19.7350  -83.4440 O.2    11  G11        -0.2633
    241  N7        -7.0060  -20.3640  -86.4230 N.ar   11  G11        -0.2173
    242  C8        -6.5950  -20.3540  -87.6650 C.ar   11  G11         0.1817
    243  N9        -5.3730  -19.7250  -87.7960 N.ar   11  G11        -0.2693
    244  OP1       -9.5080  -21.5240  -92.0600 O.2    11  G11        -0.5172
    245  OP2       -8.9990  -21.5320  -89.5200 O.co2  11  G11        -0.4373
    246  P         -3.3230  -23.6370  -91.3000 P.3    12  U12         0.2141
    247  C5'       -1.2700  -23.8840  -89.8820 C.3    12  U12         0.1812
    248  O5'       -2.6680  -23.8190  -89.8640 O.3    12  U12        -0.3114
    249  C4'       -0.7570  -23.6930  -88.4930 C.3    12  U12         0.1773
    250  O4'       -1.7280  -22.8230  -87.8920 O.3    12  U12        -0.3307
    251  C3'       -0.7640  -24.8780  -87.5270 C.3    12  U12         0.1860
    252  O3'        0.3020  -25.8370  -87.7080 O.3    12  U12        -0.3112
    253  C2'       -0.6060  -24.0750  -86.2390 C.3    12  U12         0.2309
    254  O2'        0.7310  -23.6660  -86.0070 O.3    12  U12        -0.2156
    255  C1'       -1.4950  -22.8520  -86.5000 C.3    12  U12         0.2420
    256  N1        -2.8120  -22.8140  -85.7550 N.ar   12  U12        -0.2534
    257  C2        -2.7820  -22.3320  -84.4580 C.ar   12  U12         0.3546
    258  O2        -1.7480  -21.9640  -83.9090 O.2    12  U12        -0.2443
    259  N3        -3.9860  -22.2910  -83.8010 N.ar   12  U12        -0.1530
    260  C4        -5.1970  -22.6540  -84.3220 C.ar   12  U12         0.2846
    261  O4        -6.1840  -22.5530  -83.5990 O.2    12  U12        -0.2650
    262  C5        -5.1580  -23.1390  -85.6820 C.ar   12  U12         0.0814
    263  C6        -3.9940  -23.2060  -86.3370 C.ar   12  U12         0.0870
    264  OP1       -2.3310  -24.0790  -92.3220 O.2    12  U12        -0.5172
    265  OP2       -4.7330  -24.1090  -91.2980 O.co2  12  U12        -0.4373
    266  P          0.2220  -27.1450  -88.6640 P.3    13  G13         0.2141
    267  C5'        1.2040  -26.5930  -91.0770 C.3    13  G13         0.1812
    268  O5'        1.4130  -26.8260  -89.6950 O.3    13  G13        -0.3114
    269  C4'        2.2920  -25.6650  -91.5520 C.3    13  G13         0.1773
    270  O4'        2.5800  -24.6960  -90.5230 O.3    13  G13        -0.3307
    271  C3'        3.6570  -26.3090  -91.6510 C.3    13  G13         0.1860
    272  O3'        3.7490  -27.2560  -92.7230 O.3    13  G13        -0.3112
    273  C2'        4.5470  -25.0840  -91.7690 C.3    13  G13         0.2309
    274  O2'        4.4450  -24.4940  -93.0290 O.3    13  G13        -0.2156
    275  C1'        3.9070  -24.1980  -90.7110 C.3    13  G13         0.2408
    276  N1         7.7930  -22.5300  -87.7510 N.ar   13  G13        -0.1709
    277  C2         7.6390  -22.4460  -89.1110 C.ar   13  G13         0.2606
    278  N2         8.6590  -21.8010  -89.6920 N.pl3  13  G13        -0.0859
    279  N3         6.5900  -22.8970  -89.8290 N.ar   13  G13        -0.1918
    280  C4         5.6920  -23.5050  -89.0280 C.ar   13  G13         0.1723
    281  C5         5.7670  -23.6700  -87.6560 C.ar   13  G13         0.1748
    282  C6         6.8690  -23.1830  -86.9390 C.ar   13  G13         0.3023
    283  O6         7.0300  -23.2610  -85.7170 O.2    13  G13        -0.2633
    284  N7         4.6820  -24.3250  -87.1420 N.ar   13  G13        -0.2173
    285  C8         3.9740  -24.5490  -88.2170 C.ar   13  G13         0.1817
    286  N9         4.5220  -24.1010  -89.3950 N.ar   13  G13        -0.2693
    287  OP1       -1.1340  -27.2340  -89.2890 O.2    13  G13        -0.5172
    288  OP2        0.7360  -28.3260  -87.9200 O.co2  13  G13        -0.4373
    289  P          4.5470  -28.6290  -92.4410 P.3    14  C14         0.2141
    290  C5'        6.7450  -27.8030  -93.5190 C.3    14  C14         0.1812
    291  O5'        6.0530  -28.0740  -92.3310 O.3    14  C14        -0.3114
    292  C4'        8.0570  -27.1020  -93.2510 C.3    14  C14         0.1773
    293  O4'        7.8770  -25.9430  -92.4100 O.3    14  C14        -0.3307
    294  C3'        9.0630  -27.9300  -92.4920 C.3    14  C14         0.1860
    295  O3'        9.6940  -28.8030  -93.3720 O.3    14  C14        -0.3112
    296  C2'       10.0110  -26.8840  -91.9300 C.3    14  C14         0.2309
    297  O2'       10.9850  -26.4420  -92.8450 O.3    14  C14        -0.2156
    298  C1'        9.0000  -25.8030  -91.5660 C.3    14  C14         0.2420
    299  N1         8.5580  -25.9730  -90.1750 N.ar   14  C14        -0.2535
    300  C2         9.4620  -25.6340  -89.1810 C.ar   14  C14         0.3532
    301  O2        10.5640  -25.2230  -89.5400 O.2    14  C14        -0.2443
    302  N3         9.1070  -25.7770  -87.8800 N.ar   14  C14        -0.1739
    303  C4         7.8970  -26.2420  -87.5830 C.ar   14  C14         0.1759
    304  N4         7.5760  -26.3620  -86.3070 N.pl3  14  C14        -0.1070
    305  C5         6.9530  -26.6040  -88.5750 C.ar   14  C14         0.0566
    306  C6         7.3220  -26.4650  -89.8520 C.ar   14  C14         0.0850
    307  OP1        4.3430  -29.4530  -93.6780 O.2    14  C14        -0.5172
    308  OP2        4.2340  -29.1300  -91.0630 O.co2  14  C14        -0.4373
    309  P         10.0200  -30.2730  -92.8610 P.3    15  U15         0.2141
    310  C5'       12.5250  -29.9720  -92.1620 C.3    15  U15         0.1812
    311  O5'       11.1850  -30.0440  -91.7830 O.3    15  U15        -0.3114
    312  C4'       13.3440  -29.5000  -90.9890 C.3    15  U15         0.1773
    313  O4'       12.6920  -28.3980  -90.3220 O.3    15  U15        -0.3307
    314  C3'       13.4830  -30.4770  -89.8490 C.3    15  U15         0.1860
    315  O3'       14.4050  -31.4660  -90.2120 O.3    15  U15        -0.3112
    316  C2'       13.9320  -29.5640  -88.7100 C.3    15  U15         0.2309
    317  O2'       15.2290  -29.0470  -88.8330 O.3    15  U15        -0.2156
    318  C1'       12.9230  -28.4600  -88.9140 C.3    15  U15         0.2420
    319  N1        11.6490  -28.7500  -88.2320 N.ar   15  U15        -0.2534
    320  C2        11.5960  -28.6100  -86.9000 C.ar   15  U15         0.3546
    321  O2        12.5430  -28.2760  -86.2570 O.2    15  U15        -0.2443
    322  N3        10.4220  -28.8950  -86.3250 N.ar   15  U15        -0.1530
    323  C4         9.3050  -29.2870  -86.9750 C.ar   15  U15         0.2846
    324  O4         8.3140  -29.5040  -86.3190 O.2    15  U15        -0.2650
    325  C5         9.3990  -29.4250  -88.3840 C.ar   15  U15         0.0814
    326  C6        10.5550  -29.1520  -88.9520 C.ar   15  U15         0.0870
    327  OP1       10.4930  -30.9650  -94.0850 O.2    15  U15        -0.5172
    328  OP2        8.8680  -30.8060  -92.0830 O.co2  15  U15        -0.4373
    329  P         14.0630  -33.0240  -90.1060 P.3    16  U16         0.2141
    330  C5'       16.2050  -32.6460  -88.6100 C.3    16  U16         0.1812
    331  O5'       15.0560  -33.4160  -88.9180 O.3    16  U16        -0.3114
    332  C4'       16.6030  -32.8730  -87.1630 C.3    16  U16         0.1773
    333  O4'       16.1190  -31.7610  -86.3690 O.3    16  U16        -0.3307
    334  C3'       16.0290  -34.0960  -86.4280 C.3    16  U16         0.1860
    335  O3'       16.7330  -35.2750  -86.7500 O.3    16  U16        -0.3112
    336  C2'       16.1710  -33.6890  -84.9590 C.3    16  U16         0.2309
    337  O2'       17.4690  -33.9030  -84.4430 O.3    16  U16        -0.2156
    338  C1'       15.7880  -32.2200  -85.0640 C.3    16  U16         0.2420
    339  N1        14.3390  -32.0720  -84.8930 N.ar   16  U16        -0.2534
    340  C2        13.8580  -31.8920  -83.6230 C.ar   16  U16         0.3546
    341  O2        14.5940  -31.8460  -82.6420 O.2    16  U16        -0.2443
    342  N3        12.4900  -31.7660  -83.5360 N.ar   16  U16        -0.1530
    343  C4        11.6040  -31.7960  -84.5940 C.ar   16  U16         0.2846
    344  O4        10.4040  -31.6760  -84.3880 O.2    16  U16        -0.2650
    345  C5        12.1920  -31.9890  -85.8890 C.ar   16  U16         0.0814
    346  C6        13.5110  -32.1160  -85.9850 C.ar   16  U16         0.0870
    347  OP1       14.5270  -33.6040  -91.3840 O.2    16  U16        -0.5172
    348  OP2       12.6690  -33.2570  -89.6530 O.co2  16  U16        -0.4373
    349  P         16.1980  -36.6860  -86.2460 P.3    17  G17         0.2141
    350  C5'       16.9530  -36.7710  -83.8240 C.3    17  G17         0.1812
    351  O5'       15.9200  -36.4620  -84.6960 O.3    17  G17        -0.3114
    352  C4'       16.4720  -36.5860  -82.4230 C.3    17  G17         0.1773
    353  O4'       15.8550  -35.2860  -82.3110 O.3    17  G17        -0.3307
    354  C3'       15.3720  -37.5360  -82.0010 C.3    17  G17         0.1860
    355  O3'       15.8860  -38.8270  -81.7060 O.3    17  G17        -0.3112
    356  C2'       14.9190  -36.7710  -80.7770 C.3    17  G17         0.2309
    357  O2'       15.8900  -36.8270  -79.7570 O.3    17  G17        -0.2156
    358  C1'       14.7960  -35.3760  -81.3770 C.3    17  G17         0.2408
    359  N1         9.8240  -34.4600  -80.8960 N.ar   17  G17        -0.1709
    360  C2        10.7930  -34.4910  -79.9280 C.ar   17  G17         0.2606
    361  N2        10.3560  -34.2600  -78.6880 N.pl3  17  G17        -0.0859
    362  N3        12.0800  -34.7400  -80.1470 N.ar   17  G17        -0.1918
    363  C4        12.3140  -34.9560  -81.4620 C.ar   17  G17         0.1723
    364  C5        11.4170  -34.9390  -82.4950 C.ar   17  G17         0.1748
    365  C6        10.0660  -34.6750  -82.2400 C.ar   17  G17         0.3023
    366  O6         9.1390  -34.6470  -83.0530 O.2    17  G17        -0.2633
    367  N7        12.0440  -35.1990  -83.7000 N.ar   17  G17        -0.2173
    368  C8        13.2930  -35.3700  -83.3930 C.ar   17  G17         0.1817
    369  N9        13.5220  -35.2270  -82.0520 N.ar   17  G17        -0.2693
    370  OP1       17.4290  -37.4870  -86.4310 O.3    17  G17        -0.4373
    371  OP2       14.9340  -37.1400  -86.8910 O.co2  17  G17        -0.5172
    372  P         14.9800  -40.0150  -81.1070 P.3    18  U18         0.2141
    373  C5'       14.2460  -40.8410  -83.5660 C.3    18  U18         0.1812
    374  O5'       13.9470  -40.2400  -82.3140 O.3    18  U18        -0.3114
    375  C4'       13.1700  -41.8820  -83.8110 C.3    18  U18         0.1773
    376  O4'       13.2110  -42.8010  -82.6910 O.3    18  U18        -0.3307
    377  C3'       11.7190  -41.3940  -83.8620 C.3    18  U18         0.1860
    378  O3'       10.9560  -42.1510  -84.7740 O.3    18  U18        -0.3112
    379  C2'       11.1790  -41.6130  -82.4620 C.3    18  U18         0.2309
    380  O2'        9.7760  -41.8000  -82.4160 O.3    18  U18        -0.2156
    381  C1'       11.9360  -42.8860  -82.1100 C.3    18  U18         0.2420
    382  N1        12.0270  -43.0650  -80.6520 N.ar   18  U18        -0.2534
    383  C2        10.8670  -43.4720  -80.0610 C.ar   18  U18         0.3546
    384  O2         9.8550  -43.6720  -80.7040 O.2    18  U18        -0.2443
    385  N3        10.9170  -43.6560  -78.7150 N.ar   18  U18        -0.1530
    386  C4        12.0090  -43.4200  -77.9170 C.ar   18  U18         0.2846
    387  O4        11.8830  -43.6240  -76.7230 O.2    18  U18        -0.2650
    388  C5        13.2060  -42.9830  -78.5880 C.ar   18  U18         0.0814
    389  C6        13.1730  -42.8220  -79.9200 C.ar   18  U18         0.0870
    390  OP1       14.2320  -39.5250  -79.9070 O.3    18  U18        -0.4373
    391  OP2       15.8900  -41.1870  -80.9910 O.co2  18  U18        -0.5172
    392  P         10.9160  -41.6430  -86.2950 P.3    19  U19         0.2141
    393  C5'        8.4660  -40.8790  -85.7710 C.3    19  U19         0.1812
    394  O5'        9.7500  -40.5320  -86.2890 O.3    19  U19        -0.3114
    395  C4'        7.3800  -39.8550  -86.0640 C.3    19  U19         0.1773
    396  O4'        6.9810  -39.1710  -84.8450 O.3    19  U19        -0.3307
    397  C3'        7.7260  -38.6880  -86.9840 C.3    19  U19         0.1860
    398  O3'        6.5570  -37.9590  -87.4370 O.3    19  U19        -0.3112
    399  C2'        8.5420  -37.8320  -86.0200 C.3    19  U19         0.2309
    400  O2'        8.7630  -36.5200  -86.4920 O.3    19  U19        -0.2156
    401  C1'        7.5910  -37.8850  -84.8140 C.3    19  U19         0.2420
    402  N1         8.1470  -37.7350  -83.4340 N.ar   19  U19        -0.2534
    403  C2         7.2740  -37.3360  -82.4480 C.ar   19  U19         0.3546
    404  O2         6.0990  -37.0780  -82.6320 O.2    19  U19        -0.2443
    405  N3         7.8130  -37.2150  -81.2030 N.ar   19  U19        -0.1530
    406  C4         9.1060  -37.4840  -80.8460 C.ar   19  U19         0.2846
    407  O4         9.4230  -37.3150  -79.6850 O.2    19  U19        -0.2650
    408  C5         9.9710  -37.9010  -81.9090 C.ar   19  U19         0.0814
    409  C6         9.4680  -38.0150  -83.1440 C.ar   19  U19         0.0870
    410  OP1       10.4400  -42.7610  -87.1540 O.2    19  U19        -0.5172
    411  OP2       12.2300  -40.9970  -86.5750 O.co2  19  U19        -0.4373
    412  P          5.0890  -38.5970  -87.6690 P.3    20  C20         0.2141
    413  C5'        4.0380  -37.8390  -85.3360 C.3    20  C20         0.1812
    414  O5'        4.5420  -38.8760  -86.1740 O.3    20  C20        -0.3114
    415  C4'        2.9480  -38.3540  -84.4210 C.3    20  C20         0.1773
    416  O4'        3.2150  -39.7290  -84.0920 O.3    20  C20        -0.3307
    417  C3'        2.8490  -37.6600  -83.0760 C.3    20  C20         0.1860
    418  O3'        1.9890  -36.5600  -83.1600 O.3    20  C20        -0.3112
    419  C2'        2.2160  -38.7370  -82.2250 C.3    20  C20         0.2309
    420  O2'        0.8310  -38.8660  -82.4720 O.3    20  C20        -0.2156
    421  C1'        3.0150  -39.9460  -82.7020 C.3    20  C20         0.2420
    422  N1         4.3270  -40.1270  -81.9680 N.ar   20  C20        -0.2535
    423  C2         4.3060  -40.3520  -80.5800 C.ar   20  C20         0.3532
    424  O2         3.2260  -40.3970  -79.9870 O.2    20  C20        -0.2443
    425  N3         5.4600  -40.5080  -79.8960 N.ar   20  C20        -0.1739
    426  C4         6.6070  -40.4550  -80.5570 C.ar   20  C20         0.1759
    427  N4         7.7270  -40.6190  -79.8460 N.pl3  20  C20        -0.1070
    428  C5         6.6540  -40.2310  -81.9680 C.ar   20  C20         0.0566
    429  C6         5.5100  -40.0820  -82.6390 C.ar   20  C20         0.0850
    430  OP1        5.2910  -39.8930  -88.3740 O.2    20  C20        -0.5172
    431  OP2        4.2300  -37.5670  -88.3000 O.co2  20  C20        -0.4373
    432  P          2.2940  -35.1240  -82.5220 P.3    21  A21         0.2141
    433  C5'        0.5790  -35.9290  -80.6320 C.3    21  A21         0.1812
    434  O5'        1.5490  -35.0040  -81.1060 O.3    21  A21        -0.3114
    435  C4'        1.0130  -36.4630  -79.2910 C.3    21  A21         0.1773
    436  O4'        2.1950  -37.2660  -79.4290 O.3    21  A21        -0.3307
    437  C3'        1.5460  -35.4430  -78.3010 C.3    21  A21         0.1860
    438  O3'        0.5460  -34.5990  -77.7800 O.3    21  A21        -0.3112
    439  C2'        2.1320  -36.3490  -77.2380 C.3    21  A21         0.2309
    440  O2'        1.1330  -36.8410  -76.3760 O.3    21  A21        -0.2156
    441  C1'        2.7440  -37.4280  -78.1230 C.3    21  A21         0.2408
    442  N1         7.2310  -37.5720  -75.5940 N.ar   21  A21        -0.2040
    443  C2         5.9640  -37.6920  -75.1620 C.ar   21  A21         0.2016
    444  N3         4.8320  -37.6400  -75.8650 N.ar   21  A21        -0.2048
    445  C4         5.1010  -37.4520  -77.1630 C.ar   21  A21         0.1692
    446  C5         6.3430  -37.3130  -77.7280 C.ar   21  A21         0.1518
    447  C6         7.4510  -37.3720  -76.8980 C.ar   21  A21         0.1919
    448  N6         8.6930  -37.2450  -77.3350 N.pl3  21  A21        -0.1054
    449  N7         6.2420  -37.1220  -79.0740 N.ar   21  A21        -0.2193
    450  C8         4.9530  -37.1470  -79.3200 C.ar   21  A21         0.1816
    451  N9         4.2010  -37.3480  -78.1970 N.ar   21  A21        -0.2693
    452  OP1        1.5950  -34.2130  -83.4450 O.2    21  A21        -0.5172
    453  OP2        3.7530  -34.9980  -82.2920 O.co2  21  A21        -0.4373
    454  P          0.7060  -33.0430  -78.0680 P.3    22  C22         0.2141
    455  C5'        2.0310  -32.6440  -75.7800 C.3    22  C22         0.1812
    456  O5'        1.9710  -32.5850  -77.2160 O.3    22  C22        -0.3114
    457  C4'        3.4700  -32.9530  -75.4270 C.3    22  C22         0.1773
    458  O4'        3.9160  -33.9130  -76.4040 O.3    22  C22        -0.3307
    459  C3'        4.5030  -31.8750  -75.6800 C.3    22  C22         0.1860
    460  O3'        4.5190  -30.9220  -74.6670 O.3    22  C22        -0.3112
    461  C2'        5.7810  -32.6850  -75.7200 C.3    22  C22         0.2309
    462  O2'        6.1850  -33.2060  -74.4860 O.3    22  C22        -0.2156
    463  C1'        5.3180  -33.8600  -76.5300 C.3    22  C22         0.2420
    464  N1         5.6960  -33.8170  -77.9310 N.ar   22  C22        -0.2535
    465  C2         7.0510  -33.9610  -78.2470 C.ar   22  C22         0.3532
    466  O2         7.8930  -34.0810  -77.3490 O.2    22  C22        -0.2443
    467  N3         7.4150  -33.9410  -79.5390 N.ar   22  C22        -0.1739
    468  C4         6.4810  -33.8150  -80.4800 C.ar   22  C22         0.1759
    469  N4         6.8890  -33.8050  -81.7590 N.pl3  22  C22        -0.1070
    470  C5         5.0900  -33.6790  -80.1650 C.ar   22  C22         0.0566
    471  C6         4.7370  -33.6880  -78.8800 C.ar   22  C22         0.0850
    472  OP1       -0.5000  -32.4200  -77.4820 O.3    22  C22        -0.4373
    473  OP2        1.0570  -32.8580  -79.4980 O.co2  22  C22        -0.5172
    474  P          4.7330  -29.3730  -75.0190 P.3    23  A23         0.2141
    475  C5'        7.2380  -29.4250  -75.1220 C.3    23  A23         0.1812
    476  O5'        6.1460  -29.0910  -74.2920 O.3    23  A23        -0.3114
    477  C4'        8.6440  -29.3140  -74.5790 C.3    23  A23         0.1773
    478  O4'        9.2320  -30.6020  -74.7900 O.3    23  A23        -0.3307
    479  C3'        9.5640  -28.3870  -75.3600 C.3    23  A23         0.1860
    480  O3'        9.8940  -27.2610  -74.5980 O.3    23  A23        -0.3112
    481  C2'       10.8050  -29.2020  -75.6030 C.3    23  A23         0.2309
    482  O2'       11.6100  -29.2190  -74.4630 O.3    23  A23        -0.2156
    483  C1'       10.1690  -30.5350  -75.8440 C.3    23  A23         0.2408
    484  N1        11.3180  -31.2930  -80.7710 N.ar   23  A23        -0.2040
    485  C2        12.0680  -31.2130  -79.6460 C.ar   23  A23         0.2016
    486  N3        11.6880  -31.0040  -78.3730 N.ar   23  A23        -0.2048
    487  C4        10.3520  -30.8770  -78.3080 C.ar   23  A23         0.1692
    488  C5         9.4570  -30.9360  -79.3650 C.ar   23  A23         0.1518
    489  C6         9.9790  -31.1590  -80.6540 C.ar   23  A23         0.1919
    490  N6         9.2080  -31.2300  -81.7360 N.pl3  23  A23        -0.1054
    491  N7         8.1660  -30.7450  -78.9270 N.ar   23  A23        -0.2193
    492  C8         8.3060  -30.5950  -77.6290 C.ar   23  A23         0.1816
    493  N9         9.6030  -30.6540  -77.1890 N.ar   23  A23        -0.2693
    494  OP1        3.6890  -28.6760  -74.2340 O.3    23  A23        -0.4373
    495  OP2        4.8690  -29.1770  -76.5100 O.co2  23  A23        -0.5172
    496  P          9.7680  -25.8210  -75.2750 P.3    24  G24         0.2141
    497  C5'       12.3000  -25.7500  -75.7280 C.3    24  G24         0.1812
    498  O5'       10.9980  -25.8670  -76.3140 O.3    24  G24        -0.3114
    499  C4'       13.3970  -26.3380  -76.5800 C.3    24  G24         0.1773
    500  O4'       13.0240  -27.5940  -77.1790 O.3    24  G24        -0.3307
    501  C3'       13.7330  -25.5600  -77.8250 C.3    24  G24         0.1860
    502  O3'       14.3850  -24.4020  -77.4790 O.3    24  G24        -0.3112
    503  C2'       14.6600  -26.5460  -78.5120 C.3    24  G24         0.2309
    504  O2'       15.9030  -26.6710  -77.8370 O.3    24  G24        -0.2156
    505  C1'       13.7390  -27.7620  -78.3950 C.3    24  G24         0.2408
    506  N1        13.1200  -28.4410  -83.3610 N.ar   24  G24        -0.1709
    507  C2        14.2750  -28.3730  -82.5910 C.ar   24  G24         0.2606
    508  N2        15.4670  -28.5190  -83.2160 N.pl3  24  G24        -0.0859
    509  N3        14.2830  -28.1820  -81.2770 N.ar   24  G24        -0.1918
    510  C4        13.0450  -28.0630  -80.7780 C.ar   24  G24         0.1723
    511  C5        11.8500  -28.1150  -81.4330 C.ar   24  G24         0.1748
    512  C6        11.8380  -28.3100  -82.8280 C.ar   24  G24         0.3023
    513  O6        10.8480  -28.3730  -83.5570 O.2    24  G24        -0.2633
    514  N7        10.8050  -27.9500  -80.5470 N.ar   24  G24        -0.2173
    515  C8        11.3950  -27.8090  -79.3940 C.ar   24  G24         0.1817
    516  N9        12.7590  -27.8730  -79.4680 N.ar   24  G24        -0.2693
    517  OP1       10.0280  -24.8820  -74.1560 O.3    24  G24        -0.4373
    518  OP2        8.5240  -25.7640  -76.0610 O.co2  24  G24        -0.5172
    519  P         14.1330  -23.0950  -78.3250 P.3    25  G25         0.2141
    520  C5'       16.0070  -23.2030  -80.0670 C.3    25  G25         0.1812
    521  O5'       14.6550  -23.4650  -79.7810 O.3    25  G25        -0.3114
    522  C4'       16.2730  -23.4570  -81.5290 C.3    25  G25         0.1773
    523  O4'       15.5930  -24.6780  -81.9120 O.3    25  G25        -0.3307
    524  C3'       15.7020  -22.4710  -82.5290 C.3    25  G25         0.1860
    525  O3'       16.4200  -21.2220  -82.5950 O.3    25  G25        -0.3112
    526  C2'       15.8540  -23.3280  -83.7730 C.3    25  G25         0.2309
    527  O2'       17.2160  -23.4180  -84.1400 O.3    25  G25        -0.2156
    528  C1'       15.3140  -24.6610  -83.2860 C.3    25  G25         0.2408
    529  N1        11.3280  -25.2500  -86.3720 N.ar   25  G25        -0.1709
    530  C2        12.6600  -25.1290  -86.6560 C.ar   25  G25         0.2606
    531  N2        12.9610  -25.1610  -87.9500 N.pl3  25  G25        -0.0859
    532  N3        13.6350  -24.9660  -85.7720 N.ar   25  G25        -0.1918
    533  C4        13.1460  -24.9620  -84.5190 C.ar   25  G25         0.1723
    534  C5        11.8470  -25.0870  -84.1190 C.ar   25  G25         0.1748
    535  C6        10.8470  -25.2580  -85.0790 C.ar   25  G25         0.3023
    536  O6         9.6420  -25.3830  -84.9010 O.2    25  G25        -0.2633
    537  N7        11.7460  -25.0380  -82.7560 N.ar   25  G25        -0.2173
    538  C8        12.9790  -24.8860  -82.3500 C.ar   25  G25         0.1817
    539  N9        13.8820  -24.8290  -83.3810 N.ar   25  G25        -0.2693
    540  OP1       15.1280  -22.2570  -77.6160 O.3    25  G25        -0.4373
    541  OP2       12.6750  -22.7960  -78.4460 O.co2  25  G25        -0.5172
    542  P         15.6290  -19.8160  -82.7510 P.3    26  C26         0.2141
    543  C5'       15.9850  -20.2210  -85.3650 C.3    26  C26         0.1812
    544  O5'       15.2370  -19.6480  -84.3040 O.3    26  C26        -0.3114
    545  C4'       15.2960  -20.0280  -86.7070 C.3    26  C26         0.1773
    546  O4'       14.5120  -21.1900  -87.1050 O.3    26  C26        -0.3307
    547  C3'       14.2970  -18.8840  -86.7640 C.3    26  C26         0.1860
    548  O3'       14.9830  -17.6970  -87.0630 O.3    26  C26        -0.3112
    549  C2'       13.3040  -19.2860  -87.8520 C.3    26  C26         0.2309
    550  O2'       13.7020  -18.9020  -89.1460 O.3    26  C26        -0.2156
    551  C1'       13.2830  -20.7970  -87.7180 C.3    26  C26         0.2420
    552  N1        12.1550  -21.2130  -86.8720 N.ar   26  C26        -0.2535
    553  C2        10.8890  -21.3370  -87.4090 C.ar   26  C26         0.3532
    554  O2        10.7320  -21.0900  -88.5970 O.2    26  C26        -0.2443
    555  N3         9.8700  -21.7120  -86.6150 N.ar   26  C26        -0.1739
    556  C4        10.0870  -21.9510  -85.3340 C.ar   26  C26         0.1759
    557  N4         9.0800  -22.3300  -84.5650 N.pl3  26  C26        -0.1070
    558  C5        11.3700  -21.8410  -84.7590 C.ar   26  C26         0.0566
    559  C6        12.3690  -21.4600  -85.5510 C.ar   26  C26         0.0850
    560  OP1       16.5610  -18.7700  -82.2830 O.2    26  C26        -0.5172
    561  OP2       14.3340  -19.9480  -82.0670 O.co2  26  C26        -0.4373
    562  P         14.3810  -16.3460  -86.4710 P.3    27  U27         0.2141
    563  C5'       13.0850  -15.4030  -88.4970 C.3    27  U27         0.1812
    564  O5'       13.0150  -16.1330  -87.2760 O.3    27  U27        -0.3114
    565  C4'       11.8050  -15.5370  -89.2790 C.3    27  U27         0.1773
    566  O4'       11.4160  -16.9170  -89.1890 O.3    27  U27        -0.3307
    567  C3'       10.6100  -14.8130  -88.6910 C.3    27  U27         0.1860
    568  O3'       10.5750  -13.4220  -89.0190 O.3    27  U27        -0.3112
    569  C2'        9.4540  -15.6360  -89.2590 C.3    27  U27         0.2309
    570  O2'        9.0740  -15.3720  -90.5910 O.3    27  U27        -0.2156
    571  C1'       10.0060  -17.0460  -89.1300 C.3    27  U27         0.2420
    572  N1         9.4620  -17.6590  -87.8590 N.ar   27  U27        -0.2534
    573  C2         8.2040  -18.2000  -87.9560 C.ar   27  U27         0.3546
    574  O2         7.5800  -18.1870  -88.9990 O.2    27  U27        -0.2443
    575  N3         7.6740  -18.7230  -86.8120 N.ar   27  U27        -0.1530
    576  C4         8.3270  -18.7840  -85.6000 C.ar   27  U27         0.2846
    577  O4         7.7460  -19.2930  -84.6560 O.2    27  U27        -0.2650
    578  C5         9.6420  -18.2050  -85.5390 C.ar   27  U27         0.0814
    579  C6        10.1440  -17.6620  -86.6560 C.ar   27  U27         0.0870
    580  OP1       15.3340  -15.2920  -86.8790 O.2    27  U27        -0.5172
    581  OP2       14.1330  -16.5580  -85.0200 O.co2  27  U27        -0.4373
    582  P         10.5790  -12.3210  -87.8440 P.3    28  G28         0.2141
    583  C5'        8.0980  -11.8190  -88.3970 C.3    28  G28         0.1812
    584  O5'        9.0460  -12.2410  -87.4220 O.3    28  G28        -0.3114
    585  C4'        6.7910  -12.5330  -88.1420 C.3    28  G28         0.1773
    586  O4'        7.1180  -13.9270  -87.9560 O.3    28  G28        -0.3307
    587  C3'        6.0290  -12.2550  -86.8380 C.3    28  G28         0.1860
    588  O3'        5.3380  -10.9730  -86.7170 O.3    28  G28        -0.3112
    589  C2'        5.0840  -13.4490  -86.8680 C.3    28  G28         0.2309
    590  O2'        4.0700  -13.3370  -87.8330 O.3    28  G28        -0.2156
    591  C1'        6.0680  -14.5530  -87.2340 C.3    28  G28         0.2408
    592  N1         4.9510  -17.9170  -83.6280 N.ar   28  G28        -0.1709
    593  C2         4.2030  -17.5000  -84.7040 C.ar   28  G28         0.2606
    594  N2         2.9900  -18.0660  -84.8220 N.pl3  28  G28        -0.0859
    595  N3         4.6180  -16.6110  -85.5990 N.ar   28  G28        -0.1918
    596  C4         5.8640  -16.1500  -85.3060 C.ar   28  G28         0.1723
    597  C5         6.6900  -16.4890  -84.2530 C.ar   28  G28         0.1748
    598  C6         6.2310  -17.4460  -83.3210 C.ar   28  G28         0.3023
    599  O6         6.8440  -17.8940  -82.3370 O.2    28  G28        -0.2633
    600  N7         7.8980  -15.8020  -84.3090 N.ar   28  G28        -0.2173
    601  C8         7.7760  -15.0600  -85.3840 C.ar   28  G28         0.1817
    602  N9         6.5700  -15.2190  -86.0350 N.ar   28  G28        -0.2693
    603  OP1       10.9110  -11.0620  -88.5370 O.2    28  G28        -0.5172
    604  OP2       11.3490  -12.7480  -86.6560 O.co2  28  G28        -0.4373
    605  P          5.9940   -9.7700  -85.8530 P.3    29  A29         0.2141
    606  C5'        4.9800   -9.8710  -83.4360 C.3    29  A29         0.1812
    607  O5'        4.8750   -9.4710  -84.7600 O.3    29  A29        -0.3114
    608  C4'        3.5830  -10.1860  -82.9950 C.3    29  A29         0.1773
    609  O4'        2.7260   -9.8270  -84.0840 O.3    29  A29        -0.3307
    610  C3'        3.2120  -11.6490  -82.8760 C.3    29  A29         0.1860
    611  O3'        3.7390  -12.2980  -81.7230 O.3    29  A29        -0.3112
    612  C2'        1.6920  -11.5650  -82.8790 C.3    29  A29         0.2309
    613  O2'        1.1470  -11.1640  -81.6510 O.3    29  A29        -0.2156
    614  C1'        1.4740  -10.4800  -83.9180 C.3    29  A29         0.2408
    615  N1        -2.3630  -12.9700  -86.1190 N.ar   29  A29        -0.2040
    616  C2        -2.0090  -12.7830  -84.8450 C.ar   29  A29         0.2016
    617  N3        -0.9670  -12.1130  -84.3690 N.ar   29  A29        -0.2048
    618  C4        -0.2220  -11.6160  -85.3560 C.ar   29  A29         0.1692
    619  C5        -0.4370  -11.7330  -86.7080 C.ar   29  A29         0.1518
    620  C6        -1.5750  -12.4440  -87.0800 C.ar   29  A29         0.1919
    621  N6        -1.8990  -12.6570  -88.3490 N.pl3  29  A29        -0.1054
    622  N7         0.5480  -11.0900  -87.4240 N.ar   29  A29        -0.2193
    623  C8         1.3280  -10.6000  -86.4820 C.ar   29  A29         0.1816
    624  N9         0.9140  -10.8900  -85.2050 N.ar   29  A29        -0.2693
    625  OP1        6.0090   -8.6030  -86.7570 O.2    29  A29        -0.5172
    626  OP2        7.2500  -10.2040  -85.2040 O.co2  29  A29        -0.4373
    627  P          4.5780  -13.6280  -81.9900 P.3    30  G30         0.2141
    628  C5'        2.6580  -14.9300  -80.7880 C.3    30  G30         0.1812
    629  O5'        3.3950  -14.6850  -81.9870 O.3    30  G30        -0.3114
    630  C4'        1.3790  -15.6270  -81.1820 C.3    30  G30         0.1773
    631  O4'        0.7610  -14.8240  -82.2070 O.3    30  G30        -0.3307
    632  C3'        1.5660  -16.9810  -81.8380 C.3    30  G30         0.1860
    633  O3'        1.6120  -18.0030  -80.8560 O.3    30  G30        -0.3112
    634  C2'        0.3650  -17.0890  -82.7670 C.3    30  G30         0.2309
    635  O2'       -0.8160  -17.5060  -82.1090 O.3    30  G30        -0.2156
    636  C1'        0.2030  -15.6470  -83.2180 C.3    30  G30         0.2408
    637  N1        -0.4080  -15.4150  -88.2090 N.ar   30  G30        -0.1709
    638  C2        -1.2530  -15.8910  -87.2540 C.ar   30  G30         0.2606
    639  N2        -2.4100  -16.3620  -87.7250 N.pl3  30  G30        -0.0859
    640  N3        -0.9900  -15.9130  -85.9550 N.ar   30  G30        -0.1918
    641  C4         0.2230  -15.3920  -85.6990 C.ar   30  G30         0.1723
    642  C5         1.1320  -14.8890  -86.5750 C.ar   30  G30         0.1748
    643  C6         0.8170  -14.8750  -87.9100 C.ar   30  G30         0.3023
    644  O6         1.5210  -14.4570  -88.7950 O.2    30  G30        -0.2633
    645  N7         2.2730  -14.4560  -85.9570 N.ar   30  G30        -0.2173
    646  C8         2.0420  -14.6860  -84.6950 C.ar   30  G30         0.1817
    647  N9         0.8150  -15.2690  -84.4760 N.ar   30  G30        -0.2693
    648  OP1        5.4000  -13.9500  -80.7960 O.3    30  G30        -0.4373
    649  OP2        5.1350  -13.5760  -83.3640 O.co2  30  G30        -0.5172
    650  P          2.8270  -19.0520  -80.9280 P.3    31  A31         0.2141
    651  C5'        1.2800  -20.5040  -82.4080 C.3    31  A31         0.1812
    652  O5'        2.5090  -19.8500  -82.2650 O.3    31  A31        -0.3114
    653  C4'        1.4380  -21.6630  -83.3690 C.3    31  A31         0.1773
    654  O4'        1.8770  -21.2230  -84.6900 O.3    31  A31        -0.3307
    655  C3'        2.4790  -22.6690  -82.8980 C.3    31  A31         0.1860
    656  O3'        1.9440  -23.9660  -83.0080 O.3    31  A31        -0.3112
    657  C2'        3.6560  -22.4850  -83.8400 C.3    31  A31         0.2309
    658  O2'        4.3560  -23.6980  -84.0340 O.3    31  A31        -0.2156
    659  C1'        2.9510  -22.0260  -85.1130 C.3    31  A31         0.2408
    660  N1         3.4390  -20.6920  -90.0410 N.ar   31  A31        -0.2040
    661  C2         2.4760  -21.3350  -89.3600 C.ar   31  A31         0.2016
    662  N3         2.4250  -21.6420  -88.0590 N.ar   31  A31        -0.2048
    663  C4         3.5100  -21.2080  -87.4110 C.ar   31  A31         0.1692
    664  C5         4.5810  -20.5380  -87.9650 C.ar   31  A31         0.1518
    665  C6         4.5220  -20.2870  -89.3520 C.ar   31  A31         0.1919
    666  N6         5.4760  -19.6540  -90.0130 N.pl3  31  A31        -0.1054
    667  N7         5.5300  -20.2530  -86.9920 N.ar   31  A31        -0.2193
    668  C8         5.0110  -20.7480  -85.8890 C.ar   31  A31         0.1816
    669  N9         3.7890  -21.3370  -86.0790 N.ar   31  A31        -0.2693
    670  OP1        2.6460  -19.9980  -79.7990 O.3    31  A31        -0.4373
    671  OP2        4.0980  -18.3000  -81.0790 O.co2  31  A31        -0.5172
    672  P          1.6420  -24.8140  -81.6980 P.3    32  A32         0.2141
    673  C5'       -0.9600  -24.5150  -81.8640 C.3    32  A32         0.1812
    674  O5'        0.2410  -24.2320  -81.1520 O.3    32  A32        -0.3114
    675  C4'       -2.2070  -24.3990  -81.0060 C.3    32  A32         0.1773
    676  O4'       -3.3440  -24.4510  -81.8990 O.3    32  A32        -0.3307
    677  C3'       -2.4300  -25.5270  -80.0100 C.3    32  A32         0.1860
    678  O3'       -3.0200  -25.0740  -78.8060 O.3    32  A32        -0.3112
    679  C2'       -3.3920  -26.4380  -80.7650 C.3    32  A32         0.2309
    680  O2'       -4.1230  -27.3240  -79.9230 O.3    32  A32        -0.2156
    681  C1'       -4.2840  -25.3660  -81.3880 C.3    32  A32         0.2408
    682  N1        -4.9490  -27.0430  -86.2790 N.ar   32  A32        -0.2040
    683  C2        -3.8370  -26.7870  -85.5700 C.ar   32  A32         0.2016
    684  N3        -3.7150  -26.3470  -84.3020 N.ar   32  A32        -0.2048
    685  C4        -4.9220  -26.1780  -83.7380 C.ar   32  A32         0.1692
    686  C5        -6.1470  -26.4040  -84.3400 C.ar   32  A32         0.1518
    687  C6        -6.1410  -26.8500  -85.6720 C.ar   32  A32         0.1919
    688  N6        -7.2750  -27.0830  -86.3370 N.pl3  32  A32        -0.1054
    689  N7        -7.1850  -26.1310  -83.4730 N.ar   32  A32        -0.2193
    690  C8        -6.5780  -25.7490  -82.3750 C.ar   32  A32         0.1816
    691  N9        -5.2110  -25.7550  -82.4590 N.ar   32  A32        -0.2693
    692  OP1        2.6870  -24.5630  -80.6580 O.3    32  A32        -0.4373
    693  OP2        1.4230  -26.1620  -82.2910 O.co2  32  A32        -0.5172
    694  P         -2.0800  -24.5410  -77.6280 P.3    33  A33         0.2141
    695  C5'        0.1580  -23.1670  -78.1730 C.3    33  A33         0.1812
    696  O5'       -1.1620  -23.5560  -78.5200 O.3    33  A33        -0.3114
    697  C4'        0.3460  -21.6580  -78.1800 C.3    33  A33         0.1773
    698  O4'       -0.0050  -21.0460  -79.4580 O.3    33  A33        -0.3307
    699  C3'       -0.5130  -20.9500  -77.1630 C.3    33  A33         0.1860
    700  O3'        0.1790  -20.9520  -75.9390 O.3    33  A33        -0.3112
    701  C2'       -0.6780  -19.5670  -77.8130 C.3    33  A33         0.2309
    702  O2'        0.4720  -18.7610  -77.6640 O.3    33  A33        -0.2156
    703  C1'       -0.8340  -19.9140  -79.2850 C.3    33  A33         0.2408
    704  N1        -5.7370  -21.5730  -78.6600 N.ar   33  A33        -0.2040
    705  C2        -4.8440  -21.1410  -77.7540 C.ar   33  A33         0.2016
    706  N3        -3.5960  -20.7150  -77.9310 N.ar   33  A33        -0.2048
    707  C4        -3.2640  -20.7630  -79.2190 C.ar   33  A33         0.1692
    708  C5        -4.0770  -21.1900  -80.2580 C.ar   33  A33         0.1518
    709  C6        -5.3770  -21.6170  -79.9530 C.ar   33  A33         0.1919
    710  N6        -6.2410  -22.0560  -80.8730 N.pl3  33  A33        -0.1054
    711  N7        -3.4310  -21.1150  -81.4660 N.ar   33  A33        -0.2193
    712  C8        -2.2540  -20.6570  -81.1330 C.ar   33  A33         0.1816
    713  N9        -2.0870  -20.4040  -79.8090 N.ar   33  A33        -0.2693
    714  OP1       -1.2490  -25.6290  -77.0420 O.2    33  A33        -0.5172
    715  OP2       -2.9230  -23.7050  -76.7360 O.co2  33  A33        -0.4373
    716  P         -0.6130  -20.5750  -74.6020 P.3    34  G34         0.2141
    717  C5'       -1.0060  -18.1040  -73.7210 C.3    34  G34         0.1812
    718  O5'       -1.0040  -19.0440  -74.7970 O.3    34  G34        -0.3114
    719  C4'       -1.4710  -16.7900  -74.3130 C.3    34  G34         0.1773
    720  O4'       -1.0570  -16.7850  -75.7030 O.3    34  G34        -0.3307
    721  C3'       -2.9750  -16.5870  -74.4310 C.3    34  G34         0.1860
    722  O3'       -3.5870  -16.1000  -73.2530 O.3    34  G34        -0.3112
    723  C2'       -3.0720  -15.5350  -75.5220 C.3    34  G34         0.2309
    724  O2'       -2.9900  -14.2280  -74.9960 O.3    34  G34        -0.2156
    725  C1'       -1.8480  -15.8310  -76.3830 C.3    34  G34         0.2408
    726  N1        -5.0240  -17.8140  -79.9940 N.ar   34  G34        -0.1709
    727  C2        -5.2730  -17.6420  -78.6540 C.ar   34  G34         0.2606
    728  N2        -6.4900  -18.0410  -78.2730 N.pl3  34  G34        -0.0859
    729  N3        -4.4090  -17.1280  -77.7740 N.ar   34  G34        -0.1918
    730  C4        -3.2330  -16.7880  -78.3520 C.ar   34  G34         0.1723
    731  C5        -2.8870  -16.9150  -79.6860 C.ar   34  G34         0.1748
    732  C6        -3.8230  -17.4660  -80.6100 C.ar   34  G34         0.3023
    733  O6        -3.6770  -17.6490  -81.8310 O.2    34  G34        -0.2633
    734  N7        -1.5950  -16.4590  -79.9190 N.ar   34  G34        -0.2173
    735  C8        -1.1990  -16.0680  -78.7530 C.ar   34  G34         0.1817
    736  N9        -2.1190  -16.2390  -77.7560 N.ar   34  G34        -0.2693
    737  OP1        0.3550  -20.5620  -73.4740 O.3    34  G34        -0.4373
    738  OP2       -1.8750  -21.3720  -74.6200 O.co2  34  G34        -0.5172
    739  P         -5.1920  -16.1400  -73.1740 P.3    35  U35         0.2141
    740  C5'       -6.9870  -14.4740  -74.1180 C.3    35  U35         0.1812
    741  O5'       -5.7170  -15.1210  -74.2920 O.3    35  U35        -0.3114
    742  C4'       -7.3770  -13.7340  -75.3840 C.3    35  U35         0.1773
    743  O4'       -8.8000  -13.7260  -75.6240 O.3    35  U35        -0.3307
    744  C3'       -7.0930  -12.2460  -75.4420 C.3    35  U35         0.1860
    745  O3'       -5.6580  -12.2480  -75.4950 O.3    35  U35        -0.3112
    746  C2'       -7.9870  -11.8420  -76.6510 C.3    35  U35         0.2309
    747  O2'       -7.2590  -11.6120  -77.8360 O.3    35  U35        -0.2156
    748  C1'       -8.8890  -13.0770  -76.8770 C.3    35  U35         0.2420
    749  N1       -10.3660  -13.0480  -77.3070 N.ar   35  U35        -0.2534
    750  C2       -11.0250  -14.2720  -77.3940 C.ar   35  U35         0.3546
    751  O2       -10.4980  -15.3530  -77.1290 O.2    35  U35        -0.2443
    752  N3       -12.3460  -14.2290  -77.8000 N.ar   35  U35        -0.1530
    753  C4       -13.1020  -13.1300  -78.1390 C.ar   35  U35         0.2846
    754  O4       -14.2810  -13.2780  -78.4850 O.2    35  U35        -0.2650
    755  C5       -12.3520  -11.8950  -78.0340 C.ar   35  U35         0.0814
    756  C6       -11.0530  -11.9020  -77.6410 C.ar   35  U35         0.0870
    757  OP1       -5.5460  -15.5490  -71.8610 O.3    35  U35        -0.4373
    758  OP2       -5.6610  -17.4980  -73.5610 O.co2  35  U35        -0.5172
    759  P         -4.6700  -11.1740  -76.1420 P.3    36  C36         0.2141
    760  C5'       -2.6590  -11.5240  -77.7220 C.3    36  C36         0.1812
    761  O5'       -4.0230  -11.8500  -77.4380 O.3    36  C36        -0.3114
    762  C4'       -2.2240  -11.9370  -79.1170 C.3    36  C36         0.1773
    763  O4'       -2.5470  -13.3360  -79.3250 O.3    36  C36        -0.3307
    764  C3'       -2.8870  -11.2170  -80.2830 C.3    36  C36         0.1860
    765  O3'       -2.2680   -9.9530  -80.5320 O.3    36  C36        -0.3112
    766  C2'       -2.6780  -12.2420  -81.3930 C.3    36  C36         0.2309
    767  O2'       -1.3490  -12.2500  -81.8760 O.3    36  C36        -0.2156
    768  C1'       -2.9300  -13.5620  -80.6690 C.3    36  C36         0.2420
    769  N1        -4.3160  -14.1400  -80.6540 N.ar   36  C36        -0.2535
    770  C2        -4.9120  -14.6000  -81.8440 C.ar   36  C36         0.3532
    771  O2        -4.3110  -14.4930  -82.9200 O.2    36  C36        -0.2443
    772  N3        -6.1570  -15.1520  -81.8050 N.ar   36  C36        -0.1739
    773  C4        -6.8020  -15.2720  -80.6470 C.ar   36  C36         0.1759
    774  N4        -8.0220  -15.8140  -80.6630 N.pl3  36  C36        -0.1070
    775  C5        -6.2110  -14.8260  -79.4200 C.ar   36  C36         0.0566
    776  C6        -4.9840  -14.2810  -79.4650 C.ar   36  C36         0.0850
    777  OP1       -3.5420  -11.0180  -75.2010 O.3    36  C36        -0.4373
    778  OP2       -5.4700  -10.0210  -76.6080 O.co2  36  C36        -0.5172
    779  P         -3.1680   -8.7330  -81.0410 P.3    37  C37         0.2141
    780  C5'       -2.9080   -9.0790  -83.6350 C.3    37  C37         0.1812
    781  O5'       -3.6340   -9.3370  -82.4570 O.3    37  C37        -0.3114
    782  C4'       -3.5420   -9.7900  -84.8000 C.3    37  C37         0.1773
    783  O4'       -3.9770  -11.0870  -84.3630 O.3    37  C37        -0.3307
    784  C3'       -4.8440   -9.2290  -85.3270 C.3    37  C37         0.1860
    785  O3'       -4.6320   -8.1200  -86.1520 O.3    37  C37        -0.3112
    786  C2'       -5.3850  -10.4130  -86.1180 C.3    37  C37         0.2309
    787  O2'       -4.7450  -10.6030  -87.3660 O.3    37  C37        -0.2156
    788  C1'       -5.0560  -11.5470  -85.1650 C.3    37  C37         0.2420
    789  N1        -6.1610  -11.9370  -84.2730 N.ar   37  C37        -0.2535
    790  C2        -7.2950  -12.5380  -84.7960 C.ar   37  C37         0.3532
    791  O2        -7.3770  -12.7200  -86.0060 O.2    37  C37        -0.2443
    792  N3        -8.2950  -12.9010  -83.9800 N.ar   37  C37        -0.1739
    793  C4        -8.1750  -12.6950  -82.6880 C.ar   37  C37         0.1759
    794  N4        -9.1750  -13.0630  -81.9080 N.pl3  37  C37        -0.1070
    795  C5        -7.0300  -12.0920  -82.1160 C.ar   37  C37         0.0566
    796  C6        -6.0470  -11.7320  -82.9340 C.ar   37  C37         0.0850
    797  OP1       -2.2990   -7.5420  -81.2130 O.2    37  C37        -0.5172
    798  OP2       -4.3680   -8.5890  -80.1820 O.co2  37  C37        -0.4373
    799  P         -5.6360   -6.8830  -86.0540 P.3    38  C38         0.2141
    800  C5'       -6.8160   -7.4560  -88.3040 C.3    38  C38         0.1812
    801  O5'       -6.8950   -7.3690  -86.9040 O.3    38  C38        -0.3114
    802  C4'       -7.8970   -8.4110  -88.7600 C.3    38  C38         0.1773
    803  O4'       -7.9930   -9.5530  -87.8830 O.3    38  C38        -0.3307
    804  C3'       -9.2940   -7.8590  -88.6620 C.3    38  C38         0.1860
    805  O3'       -9.4970   -6.9960  -89.7370 O.3    38  C38        -0.3112
    806  C2'      -10.1530   -9.1040  -88.7380 C.3    38  C38         0.2309
    807  O2'      -10.2600   -9.6510  -90.0350 O.3    38  C38        -0.2156
    808  C1'       -9.3270   -9.9970  -87.8370 C.3    38  C38         0.2420
    809  N1        -9.7280  -10.0250  -86.4260 N.ar   38  C38        -0.2535
    810  C2       -11.0310  -10.4060  -86.1380 C.ar   38  C38         0.3532
    811  O2       -11.7980  -10.6520  -87.0570 O.2    38  C38        -0.2443
    812  N3       -11.4620  -10.4940  -84.8750 N.ar   38  C38        -0.1739
    813  C4       -10.6210  -10.2230  -83.9100 C.ar   38  C38         0.1759
    814  N4       -11.1210  -10.3250  -82.6850 N.pl3  38  C38        -0.1070
    815  C5        -9.2680   -9.8450  -84.1650 C.ar   38  C38         0.0566
    816  C6        -8.8510   -9.7500  -85.4280 C.ar   38  C38         0.0850
    817  OP1       -4.8840   -5.8500  -86.8070 O.2    38  C38        -0.5172
    818  OP2       -6.1290   -6.6450  -84.6650 O.co2  38  C38        -0.4373
    819  P         -9.9470   -5.5100  -89.4600 P.3    39  U39         0.2141
    820  C5'      -12.0450   -6.2380  -90.8750 C.3    39  U39         0.1812
    821  O5'      -11.5080   -5.4840  -89.7990 O.3    39  U39        -0.3114
    822  C4'      -13.3500   -6.8890  -90.4610 C.3    39  U39         0.1773
    823  O4'      -13.1390   -7.8320  -89.3800 O.3    39  U39        -0.3307
    824  C3'      -14.4070   -5.9700  -89.8640 C.3    39  U39         0.1860
    825  O3'      -15.0740   -5.2460  -90.8650 O.3    39  U39        -0.3112
    826  C2'      -15.3480   -6.9320  -89.1520 C.3    39  U39         0.2309
    827  O2'      -16.3790   -7.3970  -89.9920 O.3    39  U39        -0.2156
    828  C1'      -14.3950   -8.0600  -88.7480 C.3    39  U39         0.2420
    829  N1       -14.2050   -8.1500  -87.2770 N.ar   39  U39        -0.2534
    830  C2       -15.2590   -8.6100  -86.5020 C.ar   39  U39         0.3546
    831  O2       -16.3540   -8.9400  -86.9600 O.2    39  U39        -0.2443
    832  N3       -15.0060   -8.6540  -85.1540 N.ar   39  U39        -0.1530
    833  C4       -13.8170   -8.3100  -84.5610 C.ar   39  U39         0.2846
    834  O4       -13.7150   -8.3950  -83.3580 O.2    39  U39        -0.2650
    835  C5       -12.7720   -7.8370  -85.4190 C.ar   39  U39         0.0814
    836  C6       -12.9950   -7.7770  -86.7300 C.ar   39  U39         0.0870
    837  OP1       -9.2300   -4.7550  -90.5090 O.2    39  U39        -0.5172
    838  OP2       -9.7500   -5.2520  -88.0080 O.co2  39  U39        -0.4373
    839  P        -15.3610   -3.7060  -90.5850 P.3    40  U40         0.2141
    840  C5'      -14.6640   -3.2130  -93.1130 C.3    40  U40         0.1812
    841  O5'      -15.6290   -3.1110  -92.0560 O.3    40  U40        -0.3114
    842  C4'      -15.2910   -3.6730  -94.4260 C.3    40  U40         0.1773
    843  O4'      -15.5730   -5.1000  -94.4020 O.3    40  U40        -0.3307
    844  C3'      -16.6240   -3.0210  -94.8010 C.3    40  U40         0.1860
    845  O3'      -16.5320   -2.4660  -96.1020 O.3    40  U40        -0.3112
    846  C2'      -17.6610   -4.1400  -94.7820 C.3    40  U40         0.2309
    847  O2'      -18.6770   -3.9800  -95.7550 O.3    40  U40        -0.2156
    848  C1'      -16.7950   -5.3610  -95.0780 C.3    40  U40         0.2420
    849  N1       -17.4290   -6.6570  -94.6160 N.ar   40  U40        -0.2534
    850  C2       -18.1980   -7.4160  -95.4890 C.ar   40  U40         0.3546
    851  O2       -18.3980   -7.1350  -96.6610 O.2    40  U40        -0.2443
    852  N3       -18.7300   -8.5580  -94.9320 N.ar   40  U40        -0.1530
    853  C4       -18.5900   -9.0210  -93.6280 C.ar   40  U40         0.2846
    854  O4       -19.1220  -10.0700  -93.2650 O.2    40  U40        -0.2650
    855  C5       -17.7930   -8.1710  -92.7890 C.ar   40  U40         0.0814
    856  C6       -17.2600   -7.0500  -93.2980 C.ar   40  U40         0.0870
    857  OP1      -14.0850   -3.0960  -90.1350 O.2    40  U40        -0.5172
    858  OP2      -16.6040   -3.6710  -89.7630 O.co2  40  U40        -0.4373
    859  P        -16.8640   -0.9320  -96.3960 P.3    41  U41         0.2141
    860  C5'      -14.7430   -0.3770  -97.8330 C.3    41  U41         0.1812
    861  O5'      -15.4060   -0.2900  -96.5640 O.3    41  U41        -0.3114
    862  C4'      -13.2650   -0.0170  -97.7740 C.3    41  U41         0.1773
    863  O4'      -13.0470    1.2900  -97.1740 O.3    41  U41        -0.3307
    864  C3'      -12.3770   -0.9140  -96.9340 C.3    41  U41         0.1860
    865  O3'      -11.0600   -0.7290  -97.4200 O.3    41  U41        -0.3112
    866  C2'      -12.5610   -0.3290  -95.5370 C.3    41  U41         0.2309
    867  O2'      -11.5240   -0.6220  -94.6390 O.3    41  U41        -0.2156
    868  C1'      -12.5000    1.1570  -95.8660 C.3    41  U41         0.2420
    869  N1       -13.2580    2.1180  -94.9800 N.ar   41  U41        -0.2534
    870  C2       -12.6780    3.3480  -94.6920 C.ar   41  U41         0.3546
    871  O2       -11.5770    3.6830  -95.0880 O.2    41  U41        -0.2443
    872  N3       -13.4370    4.1850  -93.9000 N.ar   41  U41        -0.1530
    873  C4       -14.7020    3.9260  -93.3830 C.ar   41  U41         0.2846
    874  O4       -15.2620    4.7730  -92.6910 O.2    41  U41        -0.2650
    875  C5       -15.2510    2.6300  -93.7290 C.ar   41  U41         0.0814
    876  C6       -14.5270    1.7950  -94.4950 C.ar   41  U41         0.0870
    877  OP1      -17.5290   -0.3510  -95.2100 O.3    41  U41        -0.4373
    878  OP2      -17.5390   -0.9140  -97.7140 O.co2  41  U41        -0.5172
    879  P         -9.9330   -1.8560  -97.4180 P.3    42  G42         0.2141
    880  C5'      -10.1400   -3.3710  -95.2270 C.3    42  G42         0.1812
    881  O5'      -10.5820   -3.0380  -96.5440 O.3    42  G42        -0.3114
    882  C4'      -10.7490   -4.6850  -94.7570 C.3    42  G42         0.1773
    883  O4'      -12.2010   -4.6510  -94.8080 O.3    42  G42        -0.3307
    884  C3'      -10.3900   -5.9050  -95.6040 C.3    42  G42         0.1860
    885  O3'       -9.0620   -6.3610  -95.3440 O.3    42  G42        -0.3112
    886  C2'      -11.4510   -6.8900  -95.1480 C.3    42  G42         0.2309
    887  O2'      -11.1720   -7.4680  -93.8890 O.3    42  G42        -0.2156
    888  C1'      -12.6640   -5.9640  -95.0950 C.3    42  G42         0.2408
    889  N1       -16.0360   -8.5380  -97.8490 N.ar   42  G42        -0.1709
    890  C2       -15.5780   -8.7710  -96.5730 C.ar   42  G42         0.2606
    891  N2       -16.0690   -9.8300  -95.9210 N.pl3  42  G42        -0.0859
    892  N3       -14.6890   -8.0040  -95.9630 N.ar   42  G42        -0.1918
    893  C4       -14.2760   -6.9720  -96.7340 C.ar   42  G42         0.1723
    894  C5       -14.6650   -6.6560  -98.0050 C.ar   42  G42         0.1748
    895  C6       -15.6140   -7.4760  -98.6470 C.ar   42  G42         0.3023
    896  O6       -16.0660   -7.3300  -99.7810 O.2    42  G42        -0.2633
    897  N7       -14.0130   -5.5190  -98.4480 N.ar   42  G42        -0.2173
    898  C8       -13.2500   -5.1750  -97.4480 C.ar   42  G42         0.1817
    899  N9       -13.3680   -6.0130  -96.3690 N.ar   42  G42        -0.2693
    900  OP1       -8.7540   -1.3110  -96.6870 O.3    42  G42        -0.4373
    901  OP2       -9.8160   -2.2810  -98.8370 O.co2  42  G42        -0.5172
    902  P         -8.1700   -6.9760  -96.5210 P.3    43  A43         0.2141
    903  C5'       -6.4620   -8.1570  -94.9010 C.3    43  A43         0.1812
    904  O5'       -7.5270   -8.2430  -95.8010 O.3    43  A43        -0.3114
    905  C4'       -5.2330   -8.8360  -95.4790 C.3    43  A43         0.1773
    906  O4'       -5.3860   -9.0980  -96.9020 O.3    43  A43        -0.3307
    907  C3'       -3.9580   -8.0180  -95.3300 C.3    43  A43         0.1860
    908  O3'       -2.9480   -8.7310  -94.5840 O.3    43  A43        -0.3112
    909  C2'       -3.6530   -7.6110  -96.7840 C.3    43  A43         0.2309
    910  O2'       -2.3000   -7.3170  -97.0980 O.3    43  A43        -0.2156
    911  C1'       -4.1790   -8.8050  -97.5630 C.3    43  A43         0.2408
    912  N1        -5.3730  -10.8520 -102.1280 N.ar   43  A43        -0.2040
    913  C2        -5.1360  -11.3880 -100.9320 C.ar   43  A43         0.2016
    914  N3        -4.8210  -10.7800  -99.7910 N.ar   43  A43        -0.2048
    915  C4        -4.7630   -9.4610  -99.9450 C.ar   43  A43         0.1692
    916  C5        -4.9830   -8.7630 -101.1150 C.ar   43  A43         0.1518
    917  C6        -5.3070   -9.5190 -102.2560 C.ar   43  A43         0.1919
    918  N6        -5.5400   -8.9940 -103.4610 N.pl3  43  A43        -0.1054
    919  N7        -4.8380   -7.3980 -100.9050 N.ar   43  A43        -0.2193
    920  C8        -4.5310   -7.3200  -99.6230 C.ar   43  A43         0.1816
    921  N9        -4.4700   -8.5360  -98.9710 N.ar   43  A43        -0.2693
    922  OP1       -7.0540   -6.0800  -96.8680 O.3    43  A43        -0.4373
    923  OP2       -9.0890   -7.3980  -97.5960 O.co2  43  A43        -0.5172
    924  P         -2.9560   -8.5870  -92.9750 P.3    44  A44         0.2141
    925  C5'       -4.2040  -10.8250  -92.2860 C.3    44  A44         0.1812
    926  O5'       -4.2650   -9.4430  -92.6090 O.3    44  A44        -0.3114
    927  C4'       -4.9030  -11.2080  -90.9920 C.3    44  A44         0.1773
    928  O4'       -6.2840  -10.7610  -90.9690 O.3    44  A44        -0.3307
    929  C3'       -4.9970  -12.7200  -90.7950 C.3    44  A44         0.1860
    930  O3'       -3.7950  -13.2640  -90.2270 O.3    44  A44        -0.3112
    931  C2'       -6.1460  -12.8090  -89.8200 C.3    44  A44         0.2309
    932  O2'       -5.7110  -12.4560  -88.5150 O.3    44  A44        -0.2156
    933  C1'       -7.0950  -11.7710  -90.3990 C.3    44  A44         0.2408
    934  N1       -11.6250  -13.9440  -91.4860 N.ar   44  A44        -0.2040
    935  C2       -10.9480  -13.8320  -90.3370 C.ar   44  A44         0.2016
    936  N3        -9.7700  -13.2570  -90.1340 N.ar   44  A44        -0.2048
    937  C4        -9.2620  -12.7660  -91.2740 C.ar   44  A44         0.1692
    938  C5        -9.8500  -12.8040  -92.5320 C.ar   44  A44         0.1518
    939  C6       -11.1050  -13.4340  -92.6270 C.ar   44  A44         0.1919
    940  N6       -11.7970  -13.5600  -93.7720 N.pl3  44  A44        -0.1054
    941  N7        -9.0450  -12.1970  -93.4730 N.ar   44  A44        -0.2193
    942  C8        -7.9980  -11.8130  -92.7680 C.ar   44  A44         0.1816
    943  N9        -8.0510  -12.1340  -91.4380 N.ar   44  A44        -0.2693
    944  OP1       -3.2780   -7.1990  -92.5120 O.2    44  A44        -0.5172
    945  OP2       -1.7240   -9.2190  -92.4440 O.co2  44  A44        -0.4373
    946  P         -2.9290  -14.2400  -91.1440 P.3    45  C45         0.2141
    947  C5'       -4.2750  -15.9640  -92.5660 C.3    45  C45         0.1812
    948  O5'       -4.0010  -15.4030  -91.3140 O.3    45  C45        -0.3114
    949  C4'       -5.6900  -16.4710  -92.5620 C.3    45  C45         0.1773
    950  O4'       -6.6090  -15.3570  -92.4460 O.3    45  C45        -0.3307
    951  C3'       -6.0770  -17.0860  -93.8730 C.3    45  C45         0.1860
    952  O3'       -5.6120  -18.4040  -93.9060 O.3    45  C45        -0.3112
    953  C2'       -7.5860  -16.9020  -93.8550 C.3    45  C45         0.2309
    954  O2'       -8.2030  -17.6980  -92.8730 O.3    45  C45        -0.2156
    955  C1'       -7.6250  -15.4450  -93.4550 C.3    45  C45         0.2420
    956  N1        -7.3840  -14.4690  -94.6010 N.ar   45  C45        -0.2535
    957  C2        -8.4470  -14.0940  -95.4170 C.ar   45  C45         0.3532
    958  O2        -9.5400  -14.5790  -95.1860 O.2    45  C45        -0.2443
    959  N3        -8.2620  -13.2270  -96.4320 N.ar   45  C45        -0.1739
    960  C4        -7.0530  -12.7330  -96.6470 C.ar   45  C45         0.1759
    961  N4        -6.9010  -11.8890  -97.6490 N.pl3  45  C45        -0.1070
    962  C5        -5.9280  -13.0750  -95.8490 C.ar   45  C45         0.0566
    963  C6        -6.1350  -13.9310  -94.8390 C.ar   45  C45         0.0850
    964  OP1       -1.7820  -14.7260  -90.3370 O.3    45  C45        -0.4373
    965  OP2       -2.7800  -13.6550  -92.5050 O.co2  45  C45        -0.5172
    966  P         -4.8290  -18.8460  -95.2270 P.3    46  C46         0.2141
    967  C5'       -7.2420  -19.8820  -95.5690 C.3    46  C46         0.1812
    968  O5'       -5.8640  -19.8610  -95.9420 O.3    46  C46        -0.3114
    969  C4'       -8.1770  -20.3820  -96.6590 C.3    46  C46         0.1773
    970  O4'       -9.3140  -19.4990  -96.8680 O.3    46  C46        -0.3307
    971  C3'       -7.5880  -20.5630  -98.0500 C.3    46  C46         0.1860
    972  O3'       -6.9080  -21.7880  -98.0490 O.3    46  C46        -0.3112
    973  C2'       -8.8660  -20.4960  -98.8850 C.3    46  C46         0.2309
    974  O2'       -9.6840  -21.6450  -98.7580 O.3    46  C46        -0.2156
    975  C1'       -9.4950  -19.2720  -98.2490 C.3    46  C46         0.2420
    976  N1        -8.8480  -17.9450  -98.6220 N.ar   46  C46        -0.2535
    977  C2        -9.3270  -17.1790  -99.6990 C.ar   46  C46         0.3532
    978  O2       -10.2960  -17.5920 -100.3620 O.2    46  C46        -0.2443
    979  N3        -8.7160  -15.9960  -99.9970 N.ar   46  C46        -0.1739
    980  C4        -7.6770  -15.5520  -99.2800 C.ar   46  C46         0.1759
    981  N4        -7.0910  -14.3840  -99.5760 N.pl3  46  C46        -0.1070
    982  C5        -7.1790  -16.3100  -98.1970 C.ar   46  C46         0.0566
    983  C6        -7.7780  -17.4660  -97.9130 C.ar   46  C46         0.0850
    984  OP1       -3.5840  -19.5290  -94.8240 O.3    46  C46        -0.4373
    985  OP2       -4.6710  -17.6410  -96.0630 O.co2  46  C46        -0.5172
    986  P         -6.5870  -22.6210  -99.3630 P.3    47  U47         0.2141
    987  C5'       -8.2330  -22.7280 -101.3840 C.3    47  U47         0.1812
    988  O5'       -7.3280  -21.9350 -100.6140 O.3    47  U47        -0.3114
    989  C4'       -8.8810  -21.9910 -102.5460 C.3    47  U47         0.1773
    990  O4'       -9.2360  -20.6460 -102.1500 O.3    47  U47        -0.3307
    991  C3'       -8.0080  -21.7470 -103.7610 C.3    47  U47         0.1860
    992  O3'       -7.8660  -22.9070 -104.5490 O.3    47  U47        -0.3112
    993  C2'       -8.7480  -20.6060 -104.4460 C.3    47  U47         0.2309
    994  O2'       -9.9550  -20.9900 -105.0700 O.3    47  U47        -0.2156
    995  C1'       -9.0360  -19.7350 -103.2280 C.3    47  U47         0.2420
    996  N1        -7.9750  -18.6880 -102.8580 N.ar   47  U47        -0.2534
    997  C2        -7.6550  -17.6760 -103.7460 C.ar   47  U47         0.3546
    998  O2        -8.1630  -17.5810 -104.8500 O.2    47  U47        -0.2443
    999  N3        -6.7070  -16.7800 -103.2970 N.ar   47  U47        -0.1530
   1000  C4        -6.0550  -16.7850 -102.0730 C.ar   47  U47         0.2846
   1001  O4        -5.2130  -15.9300 -101.7900 O.2    47  U47        -0.2650
   1002  C5        -6.4330  -17.8550 -101.2040 C.ar   47  U47         0.0814
   1003  C6        -7.3480  -18.7370 -101.6180 C.ar   47  U47         0.0870
   1004  OP1       -7.2350  -23.9250  -99.0600 O.3    47  U47        -0.4373
   1005  OP2       -5.1140  -22.5480  -99.5600 O.co2  47  U47        -0.5172
   1006  P         -6.4810  -23.7040 -104.4670 P.3    48  G48         0.2141
   1007  C5'       -5.9220  -23.3260 -106.9190 C.3    48  G48         0.1812
   1008  O5'       -5.5900  -23.0370 -105.5920 O.3    48  G48        -0.3114
   1009  C4'       -6.0380  -22.0710 -107.7490 C.3    48  G48         0.1773
   1010  O4'       -6.6680  -21.0280 -106.9560 O.3    48  G48        -0.3307
   1011  C3'       -4.7090  -21.4870 -108.2070 C.3    48  G48         0.1860
   1012  O3'       -4.1700  -22.0990 -109.3980 O.3    48  G48        -0.3112
   1013  C2'       -5.1660  -20.0600 -108.4610 C.3    48  G48         0.2309
   1014  O2'       -5.9180  -19.9740 -109.6650 O.3    48  G48        -0.2156
   1015  C1'       -6.0280  -19.7800 -107.2150 C.3    48  G48         0.2408
   1016  N1        -3.3990  -15.8910 -104.9950 N.ar   48  G48        -0.1709
   1017  C2        -3.8750  -15.9940 -106.2730 C.ar   48  G48         0.2606
   1018  N2        -3.6220  -14.9380 -107.0540 N.pl3  48  G48        -0.0859
   1019  N3        -4.5430  -17.0430 -106.7510 N.ar   48  G48        -0.1918
   1020  C4        -4.7060  -18.0200 -105.8210 C.ar   48  G48         0.1723
   1021  C5        -4.2570  -17.9980 -104.5100 C.ar   48  G48         0.1748
   1022  C6        -3.5570  -16.8630 -104.0200 C.ar   48  G48         0.3023
   1023  O6        -3.0820  -16.6570 -102.8840 O.2    48  G48        -0.2633
   1024  N7        -4.6150  -19.1620 -103.8530 N.ar   48  G48        -0.2173
   1025  C8        -5.2460  -19.8580 -104.7630 C.ar   48  G48         0.1817
   1026  N9        -5.3480  -19.2450 -105.9980 N.ar   48  G48        -0.2693
   1027  OP1       -6.7520  -25.0640 -104.9540 O.2    48  G48        -0.5172
   1028  OP2       -5.8580  -23.5130 -103.1400 O.co2  48  G48        -0.4373
   1029  P         -3.4160  -23.5220 -109.4180 P.3    49  A49         0.2141
   1030  C5'       -1.8780  -24.7970 -107.8030 C.3    49  A49         0.1812
   1031  O5'       -2.6420  -23.6360 -108.0470 O.3    49  A49        -0.3114
   1032  C4'       -1.4860  -24.8810 -106.3400 C.3    49  A49         0.1773
   1033  O4'       -0.6660  -23.7350 -105.9300 O.3    49  A49        -0.3307
   1034  C3'       -2.6170  -24.8640 -105.3270 C.3    49  A49         0.1860
   1035  O3'       -2.1460  -25.3500 -104.0630 O.3    49  A49        -0.3112
   1036  C2'       -2.8760  -23.3710 -105.2620 C.3    49  A49         0.2309
   1037  O2'       -3.6900  -23.0150 -104.1740 O.3    49  A49        -0.2156
   1038  C1'       -1.4440  -22.8410 -105.1460 C.3    49  A49         0.2408
   1039  N1        -0.8230  -17.7920 -104.0640 N.ar   49  A49        -0.2040
   1040  C2        -0.9550  -18.8510 -103.2490 C.ar   49  A49         0.2016
   1041  N3        -1.1110  -20.1360 -103.5900 N.ar   49  A49        -0.2048
   1042  C4        -1.1320  -20.3010 -104.9290 C.ar   49  A49         0.1692
   1043  C5        -1.0170  -19.2990 -105.8720 C.ar   49  A49         0.1518
   1044  C6        -0.8550  -17.9910 -105.3960 C.ar   49  A49         0.1919
   1045  N6        -0.7280  -16.9510 -106.2030 N.pl3  49  A49        -0.1054
   1046  N7        -1.0850  -19.8110 -107.1490 N.ar   49  A49        -0.2193
   1047  C8        -1.2320  -21.0960 -106.9700 C.ar   49  A49         0.1816
   1048  N9        -1.2710  -21.4730 -105.6520 N.ar   49  A49        -0.2693
   1049  OP1       -2.4140  -23.5190 -110.5070 O.2    49  A49        -0.5172
   1050  OP2       -4.4390  -24.5780 -109.3900 O.co2  49  A49        -0.4373
   1051  P         -1.9930  -26.8850 -103.6390 P.3    50  A50         0.2141
   1052  C5'        0.6210  -27.1890 -103.1430 C.3    50  A50         0.1812
   1053  O5'       -0.5070  -27.3140 -104.0220 O.3    50  A50        -0.3114
   1054  C4'        1.7730  -26.5720 -103.9200 C.3    50  A50         0.1773
   1055  O4'        2.8280  -27.5250 -104.1930 O.3    50  A50        -0.3307
   1056  C3'        1.3400  -26.1090 -105.3080 C.3    50  A50         0.1860
   1057  O3'        2.0220  -24.9190 -105.8180 O.3    50  A50        -0.3112
   1058  C2'        1.4680  -27.3860 -106.1690 C.3    50  A50         0.2309
   1059  O2'        1.7780  -27.1000 -107.5290 O.3    50  A50        -0.2156
   1060  C1'        2.5550  -28.2060 -105.4180 C.3    50  A50         0.2408
   1061  N1        -0.6870  -32.3100 -104.6130 N.ar   50  A50        -0.2040
   1062  C2        -0.9390  -31.1190 -105.1740 C.ar   50  A50         0.2016
   1063  N3        -0.0900  -30.1060 -105.3640 N.ar   50  A50        -0.2048
   1064  C4         1.1580  -30.3860 -104.9120 C.ar   50  A50         0.1692
   1065  C5         1.5500  -31.5820 -104.3090 C.ar   50  A50         0.1518
   1066  C6         0.5630  -32.5840 -104.1650 C.ar   50  A50         0.1919
   1067  N6         0.8070  -33.7810 -103.6160 N.pl3  50  A50        -0.1054
   1068  N7         2.8920  -31.5560 -103.9630 N.ar   50  A50        -0.2193
   1069  C8         3.2840  -30.3630 -104.3500 C.ar   50  A50         0.1816
   1070  N9         2.3080  -29.5910 -104.9430 N.ar   50  A50        -0.2693
   1071  OP1       -2.9360  -27.6650 -104.4780 O.2    50  A50        -0.5172
   1072  OP2       -2.0540  -26.8960 -102.1550 O.co2  50  A50        -0.4373
   1073  P          3.5320  -24.4030 -105.5500 P.3    51  C51         0.2141
   1074  C5'        3.1920  -24.0490 -108.2020 C.3    51  C51         0.1812
   1075  O5'        3.7840  -23.5990 -106.9390 O.3    51  C51        -0.3114
   1076  C4'        2.6140  -22.9370 -109.0760 C.3    51  C51         0.1773
   1077  O4'        1.5240  -22.2090 -108.4420 O.3    51  C51        -0.3307
   1078  C3'        3.6040  -21.8520 -109.4540 C.3    51  C51         0.1860
   1079  O3'        4.4480  -22.3270 -110.4860 O.3    51  C51        -0.3112
   1080  C2'        2.6660  -20.7280 -109.8810 C.3    51  C51         0.2309
   1081  O2'        2.1130  -20.9310 -111.1710 O.3    51  C51        -0.2156
   1082  C1'        1.6150  -20.8320 -108.7770 C.3    51  C51         0.2420
   1083  N1         1.9800  -20.0590 -107.5630 N.ar   51  C51        -0.2535
   1084  C2         1.8490  -18.6680 -107.5610 C.ar   51  C51         0.3532
   1085  O2         1.4280  -18.0900 -108.5640 O.2    51  C51        -0.2443
   1086  N3         2.1830  -17.9770 -106.4520 N.ar   51  C51        -0.1739
   1087  C4         2.6370  -18.6220 -105.3840 C.ar   51  C51         0.1759
   1088  N4         2.9600  -17.9080 -104.3140 N.pl3  51  C51        -0.1070
   1089  C5         2.7830  -20.0330 -105.3600 C.ar   51  C51         0.0566
   1090  C6         2.4410  -20.7080 -106.4570 C.ar   51  C51         0.0850
   1091  OP1        4.4710  -25.5540 -105.5130 O.2    51  C51        -0.5172
   1092  OP2        3.5010  -23.5060 -104.3650 O.co2  51  C51        -0.4373
   1093  P          5.9470  -22.7940 -110.1820 P.3    52  A52         0.2141
   1094  C5'        6.5820  -20.9660 -111.8860 C.3    52  A52         0.1812
   1095  O5'        6.7390  -21.4680 -110.5640 O.3    52  A52        -0.3114
   1096  C4'        6.7320  -19.4580 -111.9240 C.3    52  A52         0.1773
   1097  O4'        5.6150  -18.7840 -111.2880 O.3    52  A52        -0.3307
   1098  C3'        7.9390  -18.9420 -111.1740 C.3    52  A52         0.1860
   1099  O3'        9.0660  -19.2020 -111.9940 O.3    52  A52        -0.3112
   1100  C2'        7.5450  -17.4770 -110.9840 C.3    52  A52         0.2309
   1101  O2'        7.6420  -16.6900 -112.1440 O.3    52  A52        -0.2156
   1102  C1'        6.0780  -17.6310 -110.6040 C.3    52  A52         0.2408
   1103  N1         6.3410  -15.4470 -105.9940 N.ar   52  A52        -0.2040
   1104  C2         6.6560  -14.9990 -107.2120 C.ar   52  A52         0.2016
   1105  N3         6.5540  -15.6270 -108.3740 N.ar   52  A52        -0.2048
   1106  C4         6.0650  -16.8680 -108.1970 C.ar   52  A52         0.1692
   1107  C5         5.7030  -17.4740 -107.0010 C.ar   52  A52         0.1518
   1108  C6         5.8580  -16.6950 -105.8440 C.ar   52  A52         0.1919
   1109  N6         5.5570  -17.1220 -104.6240 N.pl3  52  A52        -0.1054
   1110  N7         5.2540  -18.7650 -107.2160 N.ar   52  A52        -0.2193
   1111  C8         5.3560  -18.9230 -108.5210 C.ar   52  A52         0.1816
   1112  N9         5.8420  -17.8140 -109.1720 N.ar   52  A52        -0.2693
   1113  OP1        6.3070  -23.8090 -111.2060 O.2    52  A52        -0.5172
   1114  OP2        6.1180  -23.0800 -108.7370 O.co2  52  A52        -0.4373
   1115  P         10.4120  -19.7850 -111.3690 P.3    53  G53         0.2141
   1116  C5'       11.4190  -17.3600 -111.6280 C.3    53  G53         0.1812
   1117  O5'       11.1100  -18.4640 -110.7870 O.3    53  G53        -0.3114
   1118  C4'       11.8510  -16.2190 -110.7440 C.3    53  G53         0.1773
   1119  O4'       10.7210  -15.7110 -109.9970 O.3    53  G53        -0.3307
   1120  C3'       12.8360  -16.6420 -109.6760 C.3    53  G53         0.1860
   1121  O3'       14.1580  -16.6340 -110.1810 O.3    53  G53        -0.3112
   1122  C2'       12.6260  -15.5900 -108.6000 C.3    53  G53         0.2309
   1123  O2'       13.3730  -14.4170 -108.8420 O.3    53  G53        -0.2156
   1124  C1'       11.1300  -15.3240 -108.6910 C.3    53  G53         0.2408
   1125  N1         9.9000  -15.8330 -103.7300 N.ar   53  G53        -0.1709
   1126  C2        10.7970  -14.9890 -104.3210 C.ar   53  G53         0.2606
   1127  N2        11.4570  -14.2050 -103.4760 N.pl3  53  G53        -0.0859
   1128  N3        11.0560  -14.9390 -105.6190 N.ar   53  G53        -0.1918
   1129  C4        10.2980  -15.8190 -106.3130 C.ar   53  G53         0.1723
   1130  C5         9.3620  -16.6940 -105.8130 C.ar   53  G53         0.1748
   1131  C6         9.1080  -16.7270 -104.4280 C.ar   53  G53         0.3023
   1132  O6         8.3130  -17.4320 -103.8020 O.2    53  G53        -0.2633
   1133  N7         8.7930  -17.4340 -106.8220 N.ar   53  G53        -0.2173
   1134  C8         9.3830  -17.0100 -107.9050 C.ar   53  G53         0.1817
   1135  N9        10.3130  -16.0200 -107.6790 N.ar   53  G53        -0.2693
   1136  OP1       11.2000  -20.2920 -112.5190 O.2    53  G53        -0.5172
   1137  OP2       10.0950  -20.6220 -110.1920 O.co2  53  G53        -0.4373
   1138  P         15.2030  -17.6950 -109.6200 P.3    54  G54         0.2141
   1139  C5'       16.3020  -15.8410 -108.2000 C.3    54  G54         0.1812
   1140  O5'       15.7200  -17.1080 -108.2380 O.3    54  G54        -0.3114
   1141  C4'       16.0700  -15.2820 -106.8250 C.3    54  G54         0.1773
   1142  O4'       14.6730  -15.2980 -106.4600 O.3    54  G54        -0.3307
   1143  C3'       16.6750  -16.1080 -105.7230 C.3    54  G54         0.1860
   1144  O3'       18.0770  -16.0090 -105.8410 O.3    54  G54        -0.3112
   1145  C2'       16.0180  -15.4210 -104.5240 C.3    54  G54         0.2309
   1146  O2'       16.5630  -14.1540 -104.1980 O.3    54  G54        -0.2156
   1147  C1'       14.5890  -15.2710 -105.0470 C.3    54  G54         0.2408
   1148  N1        12.2440  -17.4390 -101.0200 N.ar   54  G54        -0.1709
   1149  C2        13.1350  -16.3890 -101.0450 C.ar   54  G54         0.2606
   1150  N2        13.4450  -15.8700  -99.8510 N.pl3  54  G54        -0.0859
   1151  N3        13.6920  -15.9040 -102.1620 N.ar   54  G54        -0.1918
   1152  C4        13.2720  -16.5500 -103.2880 C.ar   54  G54         0.1723
   1153  C5        12.3810  -17.6010 -103.3730 C.ar   54  G54         0.1748
   1154  C6        11.8060  -18.0920 -102.1810 C.ar   54  G54         0.3023
   1155  O6        11.0050  -19.0150 -102.1020 O.2    54  G54        -0.2633
   1156  N7        12.1830  -18.0110 -104.6870 N.ar   54  G54        -0.2173
   1157  C8        12.9670  -17.2240 -105.3730 C.ar   54  G54         0.1817
   1158  N9        13.6540  -16.3040 -104.5920 N.ar   54  G54        -0.2693
   1159  OP1       16.3890  -17.7270 -110.5170 O.2    54  G54        -0.5172
   1160  OP2       14.3910  -18.8820 -109.3070 O.co2  54  G54        -0.4373
   1161  P         19.0590  -16.7860 -104.8520 P.3    55  G55         0.2141
   1162  C5'       19.6950  -16.3220 -102.3450 C.3    55  G55         0.1812
   1163  O5'       19.1020  -15.8650 -103.5460 O.3    55  G55        -0.3114
   1164  C4'       18.6350  -16.4430 -101.2650 C.3    55  G55         0.1773
   1165  O4'       17.3440  -16.6910 -101.8490 O.3    55  G55        -0.3307
   1166  C3'       18.7740  -17.6450 -100.3700 C.3    55  G55         0.1860
   1167  O3'       19.7910  -17.4230  -99.4480 O.3    55  G55        -0.3112
   1168  C2'       17.4130  -17.7430  -99.7270 C.3    55  G55         0.2309
   1169  O2'       17.2930  -16.9010  -98.6050 O.3    55  G55        -0.2156
   1170  C1'       16.5200  -17.2760 -100.8690 C.3    55  G55         0.2408
   1171  N1        13.2220  -21.0500 -100.2390 N.ar   55  G55        -0.1709
   1172  C2        13.8150  -20.2260  -99.3010 C.ar   55  G55         0.2606
   1173  N2        13.4850  -20.4290  -98.0110 N.pl3  55  G55        -0.0859
   1174  N3        14.6770  -19.2630  -99.5970 N.ar   55  G55        -0.1918
   1175  C4        14.9020  -19.1930 -100.9180 C.ar   55  G55         0.1723
   1176  C5        14.3720  -19.9530 -101.9220 C.ar   55  G55         0.1748
   1177  C6        13.4580  -20.9630 -101.6000 C.ar   55  G55         0.3023
   1178  O6        12.8890  -21.7240 -102.3700 O.2    55  G55        -0.2633
   1179  N7        14.8610  -19.5660 -103.1580 N.ar   55  G55        -0.2173
   1180  C8        15.6670  -18.5870 -102.8730 C.ar   55  G55         0.1817
   1181  N9        15.7420  -18.3100 -101.5270 N.ar   55  G55        -0.2693
   1182  OP1       20.4210  -16.7300 -105.4350 O.2    55  G55        -0.5172
   1183  OP2       18.4300  -18.0930 -104.5310 O.co2  55  G55        -0.4373
   1184  P         20.7570  -18.6580  -99.2390 P.3    56  U56         0.2141
   1185  C5'       19.6770  -18.9320  -96.8520 C.3    56  U56         0.1812
   1186  O5'       19.8550  -19.4450  -98.1880 O.3    56  U56        -0.3114
   1187  C4'       18.7220  -19.8110  -96.0610 C.3    56  U56         0.1773
   1188  O4'       17.4800  -19.9060  -96.7840 O.3    56  U56        -0.3307
   1189  C3'       19.1020  -21.2660  -95.9450 C.3    56  U56         0.1860
   1190  O3'       20.0950  -21.4430  -94.9450 O.3    56  U56        -0.3112
   1191  C2'       17.7650  -21.8960  -95.5930 C.3    56  U56         0.2309
   1192  O2'       17.3720  -21.7080  -94.2530 O.3    56  U56        -0.2156
   1193  C1'       16.8340  -21.1200  -96.5030 C.3    56  U56         0.2420
   1194  N1        16.5200  -21.8240  -97.7650 N.ar   56  U56        -0.2534
   1195  C2        15.6320  -22.8770  -97.6900 C.ar   56  U56         0.3546
   1196  O2        15.1300  -23.2240  -96.6410 O.2    56  U56        -0.2443
   1197  N3        15.3620  -23.5250  -98.8670 N.ar   56  U56        -0.1530
   1198  C4        15.8830  -23.1800 -100.0940 C.ar   56  U56         0.2846
   1199  O4        15.5600  -23.8240 -101.0780 O.2    56  U56        -0.2650
   1200  C5        16.8020  -22.0710 -100.1030 C.ar   56  U56         0.0814
   1201  C6        17.0870  -21.4410  -98.9590 C.ar   56  U56         0.0870
   1202  OP1       22.0200  -18.2640  -98.5750 O.3    56  U56        -0.4373
   1203  OP2       20.8510  -19.3740 -100.5260 O.co2  56  U56        -0.5172
   1204  P         21.2330  -22.5400  -95.1750 P.3    57  A57         0.2141
   1205  C5'       21.2790  -25.1000  -94.4620 C.3    57  A57         0.1812
   1206  O5'       20.5550  -23.8660  -94.5840 O.3    57  A57        -0.3114
   1207  C4'       20.3020  -26.2530  -94.4840 C.3    57  A57         0.1773
   1208  O4'       19.9010  -26.4940  -93.1240 O.3    57  A57        -0.3307
   1209  C3'       19.0590  -25.8910  -95.2750 C.3    57  A57         0.1860
   1210  O3'       18.8520  -26.6310  -96.4820 O.3    57  A57        -0.3112
   1211  C2'       17.9030  -26.0860  -94.3310 C.3    57  A57         0.2309
   1212  O2'       17.0700  -27.1420  -94.7260 O.3    57  A57        -0.2156
   1213  C1'       18.5080  -26.3700  -92.9800 C.3    57  A57         0.2408
   1214  N1        15.2700  -24.8600  -89.3370 N.ar   57  A57        -0.2040
   1215  C2        15.2880  -25.9400  -90.1310 C.ar   57  A57         0.2016
   1216  N3        16.1690  -26.2580  -91.0740 N.ar   57  A57        -0.2048
   1217  C4        17.1180  -25.3190  -91.1650 C.ar   57  A57         0.1692
   1218  C5        17.2320  -24.1690  -90.4220 C.ar   57  A57         0.1518
   1219  C6        16.2370  -23.9270  -89.4540 C.ar   57  A57         0.1919
   1220  N6        16.1880  -22.8450  -88.6620 N.pl3  57  A57        -0.1054
   1221  N7        18.3480  -23.4640  -90.8040 N.ar   57  A57        -0.2193
   1222  C8        18.8760  -24.1850  -91.7520 C.ar   57  A57         0.1816
   1223  N9        18.1890  -25.3260  -92.0110 N.ar   57  A57        -0.2693
   1224  OP1       22.3980  -22.1750  -94.3310 O.3    57  A57        -0.4373
   1225  OP2       21.3950  -22.6920  -96.6400 O.co2  57  A57        -0.5172
   1226  P         18.0460  -25.8010  -97.6080 P.3    58  A58         0.2141
   1227  C5'       15.8000  -27.0540  -97.1360 C.3    58  A58         0.1812
   1228  O5'       16.5900  -25.8850  -96.9340 O.3    58  A58        -0.3114
   1229  C4'       14.6170  -27.1930  -96.1860 C.3    58  A58         0.1773
   1230  O4'       14.9140  -26.8820  -94.8010 O.3    58  A58        -0.3307
   1231  C3'       13.4670  -26.2790  -96.5190 C.3    58  A58         0.1860
   1232  O3'       12.7590  -26.8530  -97.5520 O.3    58  A58        -0.3112
   1233  C2'       12.6770  -26.2500  -95.2310 C.3    58  A58         0.2309
   1234  O2'       11.8290  -27.3700  -95.1000 O.3    58  A58        -0.2156
   1235  C1'       13.7830  -26.2950  -94.1880 C.3    58  A58         0.2408
   1236  N1        13.3730  -22.4460  -90.7940 N.ar   58  A58        -0.2040
   1237  C2        12.5740  -23.5090  -91.0060 C.ar   58  A58         0.2016
   1238  N3        12.7170  -24.4790  -91.9090 N.ar   58  A58        -0.2048
   1239  C4        13.8100  -24.2600  -92.6520 C.ar   58  A58         0.1692
   1240  C5        14.7040  -23.2070  -92.5490 C.ar   58  A58         0.1518
   1241  C6        14.4620  -22.2440  -91.5660 C.ar   58  A58         0.1919
   1242  N6        15.2330  -21.1680  -91.3700 N.pl3  58  A58        -0.1054
   1243  N7        15.7060  -23.3050  -93.4700 N.ar   58  A58        -0.2193
   1244  C8        15.4020  -24.3980  -94.1070 C.ar   58  A58         0.1816
   1245  N9        14.2850  -25.0340  -93.6680 N.ar   58  A58        -0.2693
   1246  OP1       17.9900  -26.4960  -98.9240 O.2    58  A58        -0.5172
   1247  OP2       18.6500  -24.4350  -97.5850 O.co2  58  A58        -0.4373
   1248  P         12.1310  -25.9130  -98.6580 P.3    59  U59         0.2141
   1249  C5'        9.7840  -26.1710  -97.4470 C.3    59  U59         0.1812
   1250  O5'       10.8100  -25.3550  -97.9580 O.3    59  U59        -0.3114
   1251  C4'        8.9320  -25.3210  -96.5160 C.3    59  U59         0.1773
   1252  O4'        9.6100  -24.9530  -95.2810 O.3    59  U59        -0.3307
   1253  C3'        8.5420  -23.9530  -97.0340 C.3    59  U59         0.1860
   1254  O3'        7.5730  -24.0730  -98.0610 O.3    59  U59        -0.3112
   1255  C2'        7.9940  -23.3770  -95.7340 C.3    59  U59         0.2309
   1256  O2'        6.7840  -23.9980  -95.3550 O.3    59  U59        -0.2156
   1257  C1'        9.0570  -23.7670  -94.7250 C.3    59  U59         0.2420
   1258  N1        10.2110  -22.8140  -94.3900 N.ar   59  U59        -0.2534
   1259  C2        10.2140  -22.0450  -93.2100 C.ar   59  U59         0.3546
   1260  O2         9.3310  -21.9950  -92.3720 O.2    59  U59        -0.2443
   1261  N3        11.3190  -21.2700  -93.0040 N.ar   59  U59        -0.1530
   1262  C4        12.4220  -21.1740  -93.8120 C.ar   59  U59         0.2846
   1263  O4        13.3270  -20.4210  -93.4640 O.2    59  U59        -0.2650
   1264  C5        12.3760  -22.0000  -94.9970 C.ar   59  U59         0.0814
   1265  C6        11.3040  -22.7720  -95.2350 C.ar   59  U59         0.0870
   1266  OP1       11.6850  -26.7670  -99.7860 O.2    59  U59        -0.5172
   1267  OP2       13.0490  -24.7730  -98.8890 O.co2  59  U59        -0.4373
   1268  P          7.3910  -22.9050  -99.1270 P.3    60  G60         0.2141
   1269  C5'        6.1030  -20.5280  -98.8200 C.3    60  G60         0.1812
   1270  O5'        6.7840  -21.6810  -98.2670 O.3    60  G60        -0.3114
   1271  C4'        5.3820  -19.6710  -97.7660 C.3    60  G60         0.1773
   1272  O4'        3.9320  -19.7570  -97.9410 O.3    60  G60        -0.3307
   1273  C3'        5.6720  -20.0240  -96.2950 C.3    60  G60         0.1860
   1274  O3'        5.8990  -18.8870  -95.4590 O.3    60  G60        -0.3112
   1275  C2'        4.4340  -20.7700  -95.8120 C.3    60  G60         0.2309
   1276  O2'        4.0730  -20.4320  -94.4830 O.3    60  G60        -0.2156
   1277  C1'        3.3390  -20.4430  -96.8460 C.3    60  G60         0.2408
   1278  N1         0.2510  -24.0760  -95.2090 N.ar   60  G60        -0.1709
   1279  C2         0.5840  -22.8560  -94.6340 C.ar   60  G60         0.2606
   1280  N2         0.0330  -22.5430  -93.4450 N.pl3  60  G60        -0.0859
   1281  N3         1.4170  -21.9950  -95.1960 N.ar   60  G60        -0.1918
   1282  C4         1.8920  -22.4380  -96.3860 C.ar   60  G60         0.1723
   1283  C5         1.6310  -23.6290  -97.0450 C.ar   60  G60         0.1748
   1284  C6         0.7350  -24.5560  -96.4390 C.ar   60  G60         0.3023
   1285  O6         0.3710  -25.6710  -96.8680 O.2    60  G60        -0.2633
   1286  N7         2.3400  -23.6900  -98.2520 N.ar   60  G60        -0.2173
   1287  C8         2.9980  -22.5530  -98.2920 C.ar   60  G60         0.1817
   1288  N9         2.7550  -21.7350  -97.1980 N.ar   60  G60        -0.2693
   1289  OP1        6.3280  -23.3060 -100.0780 O.2    60  G60        -0.5172
   1290  OP2        8.7700  -22.5840  -99.5810 O.co2  60  G60        -0.4373
   1291  P          6.5060  -19.0570  -93.9890 P.3    61  C61         0.2141
   1292  C5'        8.5180  -17.6770  -92.9640 C.3    61  C61         0.1812
   1293  O5'        7.7620  -18.0730  -94.0800 O.3    61  C61        -0.3114
   1294  C4'        9.7340  -16.8590  -93.3810 C.3    61  C61         0.1773
   1295  O4'       10.7600  -17.7070  -93.9200 O.3    61  C61        -0.3307
   1296  C3'        9.5180  -15.8390  -94.4790 C.3    61  C61         0.1860
   1297  O3'        9.0890  -14.6210  -93.9570 O.3    61  C61        -0.3112
   1298  C2'       10.8890  -15.6740  -95.0860 C.3    61  C61         0.2309
   1299  O2'       11.7450  -14.8920  -94.2940 O.3    61  C61        -0.2156
   1300  C1'       11.3280  -17.1110  -95.0650 C.3    61  C61         0.2420
   1301  N1        10.8550  -17.8110  -96.2390 N.ar   61  C61        -0.2535
   1302  C2        11.5400  -17.6210  -97.4320 C.ar   61  C61         0.3532
   1303  O2        12.5060  -16.8530  -97.4340 O.2    61  C61        -0.2443
   1304  N3        11.1070  -18.2810  -98.5370 N.ar   61  C61        -0.1739
   1305  C4        10.0480  -19.0850  -98.4390 C.ar   61  C61         0.1759
   1306  N4         9.6390  -19.7210  -99.5170 N.pl3  61  C61        -0.1070
   1307  C5         9.3280  -19.2860  -97.2320 C.ar   61  C61         0.0566
   1308  C6         9.7700  -18.6400  -96.1510 C.ar   61  C61         0.0850
   1309  OP1        7.0120  -20.4300  -93.8640 O.2    61  C61        -0.5172
   1310  OP2        5.5040  -18.6050  -93.0040 O.co2  61  C61        -0.4373
   1311  P          7.8520  -13.9900  -94.7150 P.3    62  C62         0.2141
   1312  C5'        9.6900  -12.0850  -95.3060 C.3    62  C62         0.1812
   1313  O5'        8.4400  -12.7470  -95.5730 O.3    62  C62        -0.3114
   1314  C4'       10.3760  -11.5120  -96.5530 C.3    62  C62         0.1773
   1315  O4'       11.2630  -12.5380  -97.0700 O.3    62  C62        -0.3307
   1316  C3'        9.5600  -11.0840  -97.7920 C.3    62  C62         0.1860
   1317  O3'        9.0270   -9.7520  -97.7520 O.3    62  C62        -0.3112
   1318  C2'       10.6240  -11.1760  -98.8820 C.3    62  C62         0.2309
   1319  O2'       11.5640  -10.1200  -98.9140 O.3    62  C62        -0.2156
   1320  C1'       11.2820  -12.4940  -98.4890 C.3    62  C62         0.2420
   1321  N1        10.5080  -13.6120  -99.1220 N.ar   62  C62        -0.2535
   1322  C2        10.6500  -13.7950 -100.4930 C.ar   62  C62         0.3532
   1323  O2        11.4160  -13.0580 -101.1170 O.2    62  C62        -0.2443
   1324  N3         9.9540  -14.7660 -101.1150 N.ar   62  C62        -0.1739
   1325  C4         9.1330  -15.5460 -100.4300 C.ar   62  C62         0.1759
   1326  N4         8.4840  -16.4880 -101.1110 N.pl3  62  C62        -0.1070
   1327  C5         8.9560  -15.3890  -99.0260 C.ar   62  C62         0.0566
   1328  C6         9.6500  -14.4130  -98.4180 C.ar   62  C62         0.0850
   1329  OP1        6.9540  -13.5180  -93.6340 O.3    62  C62        -0.4373
   1330  OP2        7.3510  -14.9860  -95.6980 O.co2  62  C62        -0.5172
   1331  P          7.5290   -9.3950  -98.1780 P.3    63  U63         0.2141
   1332  C5'        8.2630   -8.3220 -100.4640 C.3    63  U63         0.1812
   1333  O5'        7.5310   -9.3080  -99.7730 O.3    63  U63        -0.3114
   1334  C4'        8.6170   -8.7600 -101.8710 C.3    63  U63         0.1773
   1335  O4'        9.4120   -9.9790 -101.8180 O.3    63  U63        -0.3307
   1336  C3'        7.4650   -9.1470 -102.7920 C.3    63  U63         0.1860
   1337  O3'        6.7850   -8.1270 -103.4450 O.3    63  U63        -0.3112
   1338  C2'        8.2570   -9.8890 -103.8490 C.3    63  U63         0.2309
   1339  O2'        9.0020   -9.0040 -104.6720 O.3    63  U63        -0.2156
   1340  C1'        9.0740  -10.8020 -102.9280 C.3    63  U63         0.2420
   1341  N1         8.1670  -11.9470 -102.5810 N.ar   63  U63        -0.2534
   1342  C2         7.8530  -12.8640 -103.5580 C.ar   63  U63         0.3546
   1343  O2         8.3250  -12.8210 -104.6700 O.2    63  U63        -0.2443
   1344  N3         6.9850  -13.8580 -103.1800 N.ar   63  U63        -0.1530
   1345  C4         6.3930  -14.0300 -101.9480 C.ar   63  U63         0.2846
   1346  O4         5.6340  -14.9670 -101.7480 O.2    63  U63        -0.2650
   1347  C5         6.7430  -13.0230 -100.9810 C.ar   63  U63         0.0814
   1348  C6         7.5950  -12.0410 -101.3210 C.ar   63  U63         0.0870
   1349  OP1        7.2210   -8.1020  -97.5690 O.3    63  U63        -0.4373
   1350  OP2        6.6580  -10.5210  -97.8470 O.co2  63  U63        -0.5172
   1351  P          5.3750   -7.5540 -102.9670 P.3    64  G64         0.2141
   1352  C5'        4.0670   -7.8350 -105.1440 C.3    64  G64         0.1812
   1353  O5'        4.8860   -7.0030 -104.3770 O.3    64  G64        -0.3114
   1354  C4'        4.7690   -8.5850 -106.2690 C.3    64  G64         0.1773
   1355  O4'        5.6610   -9.6540 -105.8400 O.3    64  G64        -0.3307
   1356  C3'        3.7350   -9.2780 -107.1450 C.3    64  G64         0.1860
   1357  O3'        3.2620   -8.4180 -108.1300 O.3    64  G64        -0.3112
   1358  C2'        4.4750  -10.4490 -107.7470 C.3    64  G64         0.2309
   1359  O2'        5.2180  -10.0620 -108.8800 O.3    64  G64        -0.2156
   1360  C1'        5.3460  -10.8550 -106.5570 C.3    64  G64         0.2408
   1361  N1         2.8450  -15.3270 -106.0650 N.ar   64  G64        -0.1709
   1362  C2         3.3260  -14.7380 -107.2200 C.ar   64  G64         0.2606
   1363  N2         3.1010  -15.4070 -108.3670 N.pl3  64  G64        -0.0859
   1364  N3         3.9530  -13.5630 -107.2360 N.ar   64  G64        -0.1918
   1365  C4         4.0870  -13.0320 -105.9950 C.ar   64  G64         0.1723
   1366  C5         3.6560  -13.5580 -104.7980 C.ar   64  G64         0.1748
   1367  C6         2.9880  -14.7940 -104.7780 C.ar   64  G64         0.3023
   1368  O6         2.5360  -15.3950 -103.7850 O.2    64  G64        -0.2633
   1369  N7         3.9760  -12.7460 -103.7300 N.ar   64  G64        -0.2173
   1370  C8         4.5890  -11.7480 -104.2940 C.ar   64  G64         0.1817
   1371  N9         4.6950  -11.8360 -105.6670 N.ar   64  G64        -0.2693
   1372  OP1        5.7030   -6.4560 -102.0160 O.3    64  G64        -0.4373
   1373  OP2        4.3720   -8.5620 -102.5620 O.co2  64  G64        -0.5172
   1374  P          1.8380   -7.7350 -107.9450 P.3    65  C65         0.2141
   1375  C5'        1.2180   -9.5320 -109.8070 C.3    65  C65         0.1812
   1376  O5'        0.8650   -8.8020 -108.6280 O.3    65  C65        -0.3114
   1377  C4'        0.5960  -10.9250 -109.8190 C.3    65  C65         0.1773
   1378  O4'        1.3100  -11.8260 -108.9170 O.3    65  C65        -0.3307
   1379  C3'       -0.8640  -10.9950 -109.3920 C.3    65  C65         0.1860
   1380  O3'       -1.7160  -10.7000 -110.5010 O.3    65  C65        -0.3112
   1381  C2'       -0.9740  -12.4330 -108.8990 C.3    65  C65         0.2309
   1382  O2'       -1.2310  -13.3080 -109.9790 O.3    65  C65        -0.2156
   1383  C1'        0.4020  -12.7020 -108.2720 C.3    65  C65         0.2420
   1384  N1         0.5180  -12.4790 -106.7720 N.ar   65  C65        -0.2535
   1385  C2        -0.0500  -13.3660 -105.8360 C.ar   65  C65         0.3532
   1386  O2        -0.6720  -14.3480 -106.2460 O.2    65  C65        -0.2443
   1387  N3         0.0820  -13.1280 -104.5030 N.ar   65  C65        -0.1739
   1388  C4         0.7430  -12.0540 -104.0860 C.ar   65  C65         0.1759
   1389  N4         0.8560  -11.8290 -102.7840 N.pl3  65  C65        -0.1070
   1390  C5         1.3330  -11.1500 -104.9950 C.ar   65  C65         0.0566
   1391  C6         1.1900  -11.3830 -106.3070 C.ar   65  C65         0.0850
   1392  OP1        1.8340   -6.5170 -108.7750 O.2    65  C65        -0.5172
   1393  OP2        1.4720   -7.6310 -106.5260 O.co2  65  C65        -0.4373
   1394  P         -3.2090  -10.1480 -110.2860 P.3    66  G66         0.2141
   1395  C5'       -3.7620   -7.9370 -108.9850 C.3    66  G66         0.1812
   1396  O5'       -3.0290   -9.1480 -109.0590 O.3    66  G66        -0.3114
   1397  C4'       -3.6560   -7.3800 -107.5860 C.3    66  G66         0.1773
   1398  O4'       -4.0190   -8.4300 -106.6530 O.3    66  G66        -0.3307
   1399  C3'       -2.2580   -6.9400 -107.1720 C.3    66  G66         0.1860
   1400  O3'       -2.3060   -5.8880 -106.1940 O.3    66  G66        -0.3112
   1401  C2'       -1.7170   -8.2200 -106.5510 C.3    66  G66         0.2309
   1402  O2'       -0.6210   -8.0490 -105.6850 O.3    66  G66        -0.2156
   1403  C1'       -2.9460   -8.6440 -105.7660 C.3    66  G66         0.2408
   1404  N1        -2.1690  -11.8930 -101.9510 N.ar   66  G66        -0.1709
   1405  C2        -2.1150  -10.5220 -101.9680 C.ar   66  G66         0.2606
   1406  N2        -1.8200   -9.9060 -100.8250 N.pl3  66  G66        -0.0859
   1407  N3        -2.3400   -9.7860 -103.0300 N.ar   66  G66        -0.1918
   1408  C4        -2.6290  -10.5250 -104.1090 C.ar   66  G66         0.1723
   1409  C5        -2.7130  -11.8850 -104.2020 C.ar   66  G66         0.1748
   1410  C6        -2.4730  -12.6780 -103.0620 C.ar   66  G66         0.3023
   1411  O6        -2.4980  -13.9140 -102.9650 O.2    66  G66        -0.2633
   1412  N7        -3.0430  -12.2520 -105.4920 N.ar   66  G66        -0.2173
   1413  C8        -3.1500  -11.1250 -106.1420 C.ar   66  G66         0.1817
   1414  N9        -2.9160  -10.0350 -105.3550 N.ar   66  G66        -0.2693
   1415  OP1       -4.0510  -11.2720 -109.8150 O.3    66  G66        -0.4373
   1416  OP2       -3.6170   -9.3590 -111.4740 O.co2  66  G66        -0.5172
   1417  P         -2.3680   -4.3210 -106.5350 P.3    67  C67         0.2141
   1418  C5'       -4.8760   -3.8720 -106.1610 C.3    67  C67         0.1812
   1419  O5'       -3.8410   -4.0610 -107.0700 O.3    67  C67        -0.3114
   1420  C4'       -6.1630   -4.1420 -106.8900 C.3    67  C67         0.1773
   1421  O4'       -7.1700   -3.3270 -106.2570 O.3    67  C67        -0.3307
   1422  C3'       -6.1780   -3.7560 -108.3760 C.3    67  C67         0.1860
   1423  O3'       -5.9190   -4.8880 -109.1910 O.3    67  C67        -0.3112
   1424  C2'       -7.5650   -3.1220 -108.5430 C.3    67  C67         0.2309
   1425  O2'       -8.6550   -4.0150 -108.6780 O.3    67  C67        -0.2156
   1426  C1'       -7.6130   -2.3730 -107.2140 C.3    67  C67         0.2420
   1427  N1        -6.7370   -1.1280 -107.1400 N.ar   67  C67        -0.2535
   1428  C2        -6.3040   -0.6690 -105.8740 C.ar   67  C67         0.3532
   1429  O2        -6.6330   -1.2810 -104.8380 O.2    67  C67        -0.2443
   1430  N3        -5.5190    0.4490 -105.8250 N.ar   67  C67        -0.1739
   1431  C4        -5.1750    1.0960 -106.9550 C.ar   67  C67         0.1759
   1432  N4        -4.4020    2.1900 -106.8490 N.pl3  67  C67        -0.1070
   1433  C5        -5.6040    0.6420 -108.2460 C.ar   67  C67         0.0566
   1434  C6        -6.3770   -0.4510 -108.2920 C.ar   67  C67         0.0850
   1435  OP1       -1.4820   -4.0180 -107.6810 O.2    67  C67        -0.5172
   1436  OP2       -2.2050   -3.6610 -105.2230 O.co2  67  C67        -0.4373
   1437  P         -6.5420   -5.0990 -110.6600 P.3    68  A68         0.2141
   1438  C5'       -7.5780   -7.0830 -109.1940 C.3    68  A68         0.1812
   1439  O5'       -7.2000   -6.5570 -110.4850 O.3    68  A68        -0.3114
   1440  C4'       -8.2770   -8.4160 -109.3820 C.3    68  A68         0.1773
   1441  O4'       -7.2890   -9.4840 -109.3600 O.3    68  A68        -0.3307
   1442  C3'       -9.3150   -8.8410 -108.3430 C.3    68  A68         0.1860
   1443  O3'      -10.5560   -8.1140 -108.5280 O.3    68  A68        -0.3112
   1444  C2'       -9.3750  -10.3220 -108.7100 C.3    68  A68         0.2309
   1445  O2'      -10.0720  -10.5660 -109.9170 O.3    68  A68        -0.2156
   1446  C1'       -7.8960  -10.6650 -108.8690 C.3    68  A68         0.2408
   1447  N1        -6.9830  -14.4980 -105.5590 N.ar   68  A68        -0.2040
   1448  C2        -7.6830  -14.4300 -106.6930 C.ar   68  A68         0.2016
   1449  N3        -7.8760  -13.3920 -107.5070 N.ar   68  A68        -0.2048
   1450  C4        -7.2430  -12.3060 -107.0580 C.ar   68  A68         0.1692
   1451  C5        -6.4850  -12.2090 -105.9060 C.ar   68  A68         0.1518
   1452  C6        -6.3580  -13.3850 -105.1270 C.ar   68  A68         0.1919
   1453  N6        -5.6620  -13.4560 -103.9880 N.pl3  68  A68        -0.1054
   1454  N7        -5.9990  -10.9240 -105.7570 N.ar   68  A68        -0.2193
   1455  C8        -6.4680  -10.2890 -106.8050 C.ar   68  A68         0.1816
   1456  N9        -7.2320  -11.0640 -107.6310 N.ar   68  A68        -0.2693
   1457  OP1       -5.4260   -5.2130 -111.6330 O.2    68  A68        -0.5172
   1458  OP2       -7.6110   -4.1030 -110.9180 O.co2  68  A68        -0.4373
   1459  P        -11.9100   -8.2940 -107.6650 P.3    69  G69         0.2141
   1460  C5'      -12.9400  -10.6280 -108.5270 C.3    69  G69         0.1812
   1461  O5'      -12.1130   -9.8880 -107.6120 O.3    69  G69        -0.3114
   1462  C4'      -13.0740  -12.0590 -108.0340 C.3    69  G69         0.1773
   1463  O4'      -11.7670  -12.6710 -107.8950 O.3    69  G69        -0.3307
   1464  C3'      -13.6480  -12.1850 -106.6330 C.3    69  G69         0.1860
   1465  O3'      -15.0620  -12.0570 -106.6080 O.3    69  G69        -0.3112
   1466  C2'      -13.1740  -13.5740 -106.2390 C.3    69  G69         0.2309
   1467  O2'      -13.8910  -14.6150 -106.8590 O.3    69  G69        -0.2156
   1468  C1'      -11.7440  -13.5270 -106.7540 C.3    69  G69         0.2408
   1469  N1        -9.2780  -14.7320 -102.4140 N.ar   69  G69        -0.1709
   1470  C2       -10.2470  -15.4280 -103.1090 C.ar   69  G69         0.2606
   1471  N2       -10.6160  -16.6180 -102.6130 N.pl3  69  G69        -0.0859
   1472  N3       -10.8140  -15.0030 -104.2350 N.ar   69  G69        -0.1918
   1473  C4       -10.3500  -13.7920 -104.6300 C.ar   69  G69         0.1723
   1474  C5        -9.4080  -13.0200 -104.0050 C.ar   69  G69         0.1748
   1475  C6        -8.8030  -13.4810 -102.8050 C.ar   69  G69         0.3023
   1476  O6        -7.9410  -12.9210 -102.1090 O.2    69  G69        -0.2633
   1477  N7        -9.2150  -11.8520 -104.7130 N.ar   69  G69        -0.2173
   1478  C8       -10.0280  -11.9270 -105.7280 C.ar   69  G69         0.1817
   1479  N9       -10.7500  -13.0910 -105.7510 N.ar   69  G69        -0.2693
   1480  OP1      -13.0100   -7.7100 -108.4790 O.2    69  G69        -0.5172
   1481  OP2      -11.6590   -7.7990 -106.2870 O.co2  69  G69        -0.4373
   1482  P        -15.7840  -11.3160 -105.3790 P.3    70  G70         0.2141
   1483  C5'      -16.4290  -13.6420 -104.4620 C.3    70  G70         0.1812
   1484  O5'      -15.7520  -12.4230 -104.2400 O.3    70  G70        -0.3114
   1485  C4'      -15.9660  -14.6030 -103.4000 C.3    70  G70         0.1773
   1486  O4'      -14.5220  -14.6850 -103.4620 O.3    70  G70        -0.3307
   1487  C3'      -16.2610  -14.1050 -102.0010 C.3    70  G70         0.1860
   1488  O3'      -17.5200  -14.5290 -101.5200 O.3    70  G70        -0.3112
   1489  C2'      -15.1290  -14.6900 -101.1740 C.3    70  G70         0.2309
   1490  O2'      -15.4320  -15.9120 -100.5440 O.3    70  G70        -0.2156
   1491  C1'      -13.9940  -14.8760 -102.1630 C.3    70  G70         0.2408
   1492  N1       -10.3800  -13.7880  -98.7990 N.ar   70  G70        -0.1709
   1493  C2       -11.2870  -14.8220  -98.7930 C.ar   70  G70         0.2606
   1494  N2       -11.2020  -15.6770  -97.7540 N.pl3  70  G70        -0.0859
   1495  N3       -12.1930  -14.9940  -99.7550 N.ar   70  G70        -0.1918
   1496  C4       -12.1120  -14.0350 -100.7170 C.ar   70  G70         0.1723
   1497  C5       -11.2510  -12.9690 -100.7990 C.ar   70  G70         0.1748
   1498  C6       -10.2910  -12.8010  -99.7820 C.ar   70  G70         0.3023
   1499  O6        -9.4320  -11.9200  -99.6790 O.2    70  G70        -0.2633
   1500  N7       -11.4940  -12.2210 -101.9390 N.ar   70  G70        -0.2173
   1501  C8       -12.4900  -12.8270 -102.5250 C.ar   70  G70         0.1817
   1502  N9       -12.9120  -13.9440 -101.8370 N.ar   70  G70        -0.2693
   1503  OP1      -17.2060  -11.1380 -105.7660 O.2    70  G70        -0.5172
   1504  OP2      -14.9620  -10.1550 -104.9400 O.co2  70  G70        -0.4373
   1505  P        -18.0220  -13.9280 -100.1210 P.3    71  G71         0.2141
   1506  C5'      -17.4340  -14.3870  -97.6740 C.3    71  G71         0.1812
   1507  O5'      -17.2180  -14.7640  -99.0140 O.3    71  G71        -0.3114
   1508  C4'      -16.3610  -14.7690  -96.6540 C.3    71  G71         0.1773
   1509  O4'      -15.0380  -14.9600  -97.2120 O.3    71  G71        -0.3307
   1510  C3'      -16.1980  -13.7260  -95.5560 C.3    71  G71         0.1860
   1511  O3'      -17.0620  -14.0750  -94.4770 O.3    71  G71        -0.3112
   1512  C2'      -14.7140  -13.7420  -95.2050 C.3    71  G71         0.2309
   1513  O2'      -14.4090  -14.5580  -94.0950 O.3    71  G71        -0.2156
   1514  C1'      -14.0760  -14.2150  -96.5020 C.3    71  G71         0.2408
   1515  N1       -11.3450   -9.9720  -97.5540 N.ar   71  G71        -0.1709
   1516  C2       -11.2710  -10.7510  -96.4400 C.ar   71  G71         0.2606
   1517  N2       -10.3660  -10.3490  -95.5420 N.pl3  71  G71        -0.0859
   1518  N3       -12.0210  -11.8470  -96.2390 N.ar   71  G71        -0.1918
   1519  C4       -12.8630  -12.1040  -97.2700 C.ar   71  G71         0.1723
   1520  C5       -13.0040  -11.3700  -98.4170 C.ar   71  G71         0.1748
   1521  C6       -12.2150  -10.2220  -98.6080 C.ar   71  G71         0.3023
   1522  O6       -12.2400   -9.4700  -99.5850 O.2    71  G71        -0.2633
   1523  N7       -13.9570  -11.9080  -99.2550 N.ar   71  G71        -0.2173
   1524  C8       -14.3870  -12.9380  -98.6050 C.ar   71  G71         0.1817
   1525  N9       -13.7600  -13.1350  -97.4050 N.ar   71  G71        -0.2693
   1526  OP1      -19.4700  -14.2130  -99.9950 O.3    71  G71        -0.4373
   1527  OP2      -17.5630  -12.5250 -100.0270 O.co2  71  G71        -0.5172
   1528  P        -18.6590  -14.0200  -94.6840 P.3    72  A72         0.2141
   1529  C5'      -19.7680  -14.0980  -92.2640 C.3    72  A72         0.1812
   1530  O5'      -19.1500  -13.3650  -93.3120 O.3    72  A72        -0.3114
   1531  C4'      -19.1000  -13.7120  -90.9600 C.3    72  A72         0.1773
   1532  O4'      -17.6840  -13.8440  -91.1750 O.3    72  A72        -0.3307
   1533  C3'      -19.2730  -12.2720  -90.5000 C.3    72  A72         0.1860
   1534  O3'      -20.4400  -12.1220  -89.7090 O.3    72  A72        -0.3112
   1535  C2'      -18.0210  -12.0440  -89.6750 C.3    72  A72         0.2309
   1536  O2'      -18.1650  -12.4970  -88.3450 O.3    72  A72        -0.2156
   1537  C1'      -16.9940  -12.9100  -90.3810 C.3    72  A72         0.2408
   1538  N1       -12.3580  -10.7900  -90.6220 N.ar   72  A72        -0.2040
   1539  C2       -13.0100  -11.3930  -89.6200 C.ar   72  A72         0.2016
   1540  N3       -14.2390  -11.9140  -89.6340 N.ar   72  A72        -0.2048
   1541  C4       -14.8080  -11.7880  -90.8470 C.ar   72  A72         0.1692
   1542  C5       -14.2570  -11.1940  -91.9610 C.ar   72  A72         0.1518
   1543  C6       -12.9690  -10.6850  -91.8200 C.ar   72  A72         0.1919
   1544  N6       -12.3530  -10.1070  -92.8390 N.pl3  72  A72        -0.1054
   1545  N7       -15.1190  -11.2320  -93.0310 N.ar   72  A72        -0.2193
   1546  C8       -16.1750  -11.8540  -92.5480 C.ar   72  A72         0.1816
   1547  N9       -16.0500  -12.2070  -91.2330 N.ar   72  A72        -0.2693
   1548  OP1      -19.2020  -15.3930  -94.8610 O.3    72  A72        -0.4373
   1549  OP2      -18.9420  -12.9840  -95.7000 O.co2  72  A72        -0.5172
   1550  P        -21.6970  -11.3470  -90.3160 P.3    73  G73         0.2141
   1551  C5'      -20.6830   -9.1870  -89.3540 C.3    73  G73         0.1812
   1552  O5'      -21.0370   -9.9160  -90.4980 O.3    73  G73        -0.3114
   1553  C4'      -21.9260   -8.5370  -88.7850 C.3    73  G73         0.1773
   1554  O4'      -21.6770   -8.2890  -87.3910 O.3    73  G73        -0.3307
   1555  C3'      -22.2550   -7.2100  -89.4430 C.3    73  G73         0.1860
   1556  O3'      -23.6640   -6.9280  -89.4510 O.3    73  G73        -0.3112
   1557  C2'      -21.4470   -6.2320  -88.6050 C.3    73  G73         0.2309
   1558  O2'      -22.0490   -4.9530  -88.4770 O.3    73  G73        -0.2156
   1559  C1'      -21.3830   -6.9290  -87.2400 C.3    73  G73         0.2408
   1560  N1       -18.8970   -6.5800  -82.8640 N.ar   73  G73        -0.1709
   1561  C2       -20.2170   -6.8650  -83.1070 C.ar   73  G73         0.2606
   1562  N2       -20.9730   -7.0510  -82.0300 N.pl3  73  G73        -0.0859
   1563  N3       -20.7760   -6.9410  -84.2970 N.ar   73  G73        -0.1918
   1564  C4       -19.8650   -6.7230  -85.2570 C.ar   73  G73         0.1723
   1565  C5       -18.5310   -6.4440  -85.1330 C.ar   73  G73         0.1748
   1566  C6       -17.9500   -6.3590  -83.8580 C.ar   73  G73         0.3023
   1567  O6       -16.7580   -6.1150  -83.5880 O.2    73  G73        -0.2633
   1568  N7       -17.9310   -6.2760  -86.3680 N.ar   73  G73        -0.2173
   1569  C8       -18.9000   -6.4610  -87.2170 C.ar   73  G73         0.1817
   1570  N9       -20.0980   -6.7340  -86.6020 N.ar   73  G73        -0.2693
   1571  OP1      -22.7780  -11.3090  -89.2960 O.3    73  G73        -0.4373
   1572  OP2      -22.0040  -11.8470  -91.6740 O.co2  73  G73        -0.5172
   1573  P        -24.2000   -6.0590  -90.6820 P.3    74  U74         0.2141
   1574  C5'      -25.0210   -4.0660  -89.0630 C.3    74  U74         0.1812
   1575  O5'      -25.3250   -5.1170  -90.0230 O.3    74  U74        -0.3114
   1576  C4'      -24.1140   -2.9510  -89.5990 C.3    74  U74         0.1773
   1577  O4'      -24.3960   -2.7330  -91.0130 O.3    74  U74        -0.3307
   1578  C3'      -24.2400   -1.5630  -88.9560 C.3    74  U74         0.1860
   1579  O3'      -23.2440   -1.3220  -87.9930 O.3    74  U74        -0.3112
   1580  C2'      -24.0220   -0.6760  -90.1690 C.3    74  U74         0.2309
   1581  O2'      -22.6580   -0.6840  -90.5710 O.3    74  U74        -0.2156
   1582  C1'      -24.9010   -1.4250  -91.1650 C.3    74  U74         0.2420
   1583  N1       -26.3920   -1.5000  -90.9090 N.ar   74  U74        -0.2534
   1584  C2       -27.1500   -2.4640  -91.5730 C.ar   74  U74         0.3546
   1585  O2       -26.7120   -3.2680  -92.3730 O.2    74  U74        -0.2443
   1586  N3       -28.4870   -2.4650  -91.2740 N.ar   74  U74        -0.1530
   1587  C4       -29.1410   -1.6220  -90.3960 C.ar   74  U74         0.2846
   1588  O4       -30.3480   -1.7480  -90.2350 O.2    74  U74        -0.2650
   1589  C5       -28.3030   -0.6490  -89.7330 C.ar   74  U74         0.0814
   1590  C6       -26.9920   -0.6230  -90.0120 C.ar   74  U74         0.0870
   1591  OP1      -24.8690   -6.9720  -91.6320 O.2    74  U74        -0.5172
   1592  OP2      -23.0530   -5.2520  -91.1690 O.co2  74  U74        -0.4373
   1593  P        -23.5680   -1.5370  -86.4490 P.3    75  G75         0.2141
   1594  C5'      -25.7310   -2.7340  -85.4530 C.3    75  G75         0.1812
   1595  O5'      -24.7110   -2.6570  -86.4480 O.3    75  G75        -0.3114
   1596  C4'      -25.2360   -3.3160  -84.1380 C.3    75  G75         0.1773
   1597  O4'      -23.9590   -4.0020  -84.2150 O.3    75  G75        -0.3307
   1598  C3'      -24.8680   -2.2810  -83.1090 C.3    75  G75         0.1860
   1599  O3'      -25.9780   -1.5100  -82.7110 O.3    75  G75        -0.3112
   1600  C2'      -24.2770   -3.1490  -82.0140 C.3    75  G75         0.2309
   1601  O2'      -25.2410   -3.7910  -81.2070 O.3    75  G75        -0.2156
   1602  C1'      -23.4800   -4.1280  -82.8830 C.3    75  G75         0.2408
   1603  N1       -19.6430   -3.7650  -79.6930 N.ar   75  G75        -0.1709
   1604  C2       -20.9780   -3.9720  -79.4610 C.ar   75  G75         0.2606
   1605  N2       -21.3490   -4.1050  -78.1800 N.pl3  75  G75        -0.0859
   1606  N3       -21.8890   -4.0360  -80.4140 N.ar   75  G75        -0.1918
   1607  C4       -21.3330   -3.8870  -81.6430 C.ar   75  G75         0.1723
   1608  C5       -20.0180   -3.6850  -81.9930 C.ar   75  G75         0.1748
   1609  C6       -19.0690   -3.6250  -80.9560 C.ar   75  G75         0.3023
   1610  O6       -17.8490   -3.4510  -81.0550 O.2    75  G75        -0.2633
   1611  N7       -19.8670   -3.5840  -83.3700 N.ar   75  G75        -0.2173
   1612  C8       -21.0910   -3.7310  -83.8190 C.ar   75  G75         0.1817
   1613  N9       -22.0320   -3.9130  -82.8170 N.ar   75  G75        -0.2693
   1614  OP1      -24.1460   -0.2790  -85.9120 O.2    75  G75        -0.5172
   1615  OP2      -22.3530   -2.1470  -85.8680 O.co2  75  G75        -0.4373
   1616  P        -25.6980    0.0270  -82.3790 P.3    76  U76         0.2141
   1617  C5'      -26.1860   -0.2480  -79.8020 C.3    76  U76         0.1812
   1618  O5'      -25.2480   -0.0480  -80.8490 O.3    76  U76        -0.3114
   1619  C4'      -25.4750   -0.2400  -78.4670 C.3    76  U76         0.1773
   1620  O4'      -24.4300   -1.2340  -78.4680 O.3    76  U76        -0.3307
   1621  C3'      -24.7310    1.0400  -78.1690 C.3    76  U76         0.1860
   1622  O3'      -25.6220    2.0050  -77.6310 O.3    76  U76        -0.3112
   1623  C2'      -23.6530    0.5800  -77.1970 C.3    76  U76         0.2309
   1624  O2'      -24.1180    0.4390  -75.8690 O.3    76  U76        -0.2156
   1625  C1'      -23.2630   -0.7460  -77.8360 C.3    76  U76         0.2420
   1626  N1       -22.1730   -0.6310  -78.8620 N.ar   76  U76        -0.2534
   1627  C2       -20.8500   -0.7140  -78.4640 C.ar   76  U76         0.3546
   1628  O2       -20.5080   -0.8860  -77.3040 O.2    76  U76        -0.2443
   1629  N3       -19.9210   -0.6010  -79.4800 N.ar   76  U76        -0.1530
   1630  C4       -20.1920   -0.3960  -80.8260 C.ar   76  U76         0.2846
   1631  O4       -19.2700   -0.2990  -81.6310 O.2    76  U76        -0.2650
   1632  C5       -21.5880   -0.3180  -81.1660 C.ar   76  U76         0.0814
   1633  C6       -22.4970   -0.4320  -80.1940 C.ar   76  U76         0.0870
   1634  OP1      -27.0050    0.7420  -82.4520 O.3    76  U76        -0.4373
   1635  OP2      -24.5200    0.4730  -83.1660 O.co2  76  U76        -0.5172
   1636  P        -25.3360    3.5540  -77.9000 P.3    77  C77         0.2141
   1637  C5'      -24.4660    3.7010  -75.4610 C.3    77  C77         0.1813
   1638  O5'      -24.1790    3.8380  -76.8390 O.3    77  C77        -0.3114
   1639  C4'      -23.1830    3.8000  -74.6650 C.3    77  C77         0.1801
   1640  O4'      -22.2750    2.7410  -75.0480 O.3    77  C77        -0.3306
   1641  C3'      -22.3950    5.0840  -74.8800 C.3    77  C77         0.2161
   1642  O3'      -22.8980    6.1380  -74.0520 O.3    77  C77        -0.2175
   1643  C2'      -20.9900    4.6560  -74.4810 C.3    77  C77         0.2338
   1644  O2'      -20.7470    4.6990  -73.0910 O.3    77  C77        -0.2155
   1645  C1'      -20.9450    3.2150  -74.9500 C.3    77  C77         0.2421
   1646  N1       -20.2530    3.1070  -76.2510 N.ar   77  C77        -0.2535
   1647  C2       -18.8480    3.1050  -76.2710 C.ar   77  C77         0.3532
   1648  O2       -18.2230    3.1980  -75.2080 O.2    77  C77        -0.2443
   1649  N3       -18.2080    3.0040  -77.4710 N.ar   77  C77        -0.1739
   1650  C4       -18.9190    2.9120  -78.6030 C.ar   77  C77         0.1759
   1651  N4       -18.2630    2.8160  -79.7590 N.pl3  77  C77        -0.1070
   1652  C5       -20.3460    2.9180  -78.5960 C.ar   77  C77         0.0566
   1653  C6       -20.9690    3.0250  -77.4150 C.ar   77  C77         0.0850
   1654  OP1      -26.5480    4.2820  -77.4650 O.3    77  C77        -0.4373
   1655  OP2      -24.7930    3.7450  -79.2710 O.co2  77  C77        -0.5172
@<TRIPOS>BOND
     1  1136  1115    2
     2  1101  1100    1
     3  1099  1115    1
     4  1099  1098    1
     5  1096  1094    1
     6  1096  1097    1
     7  1096  1098    1
     8  1094  1095    1
     9  1457  1437    2
    10  1116  1117    1
    11  1116  1118    1
    12  1416  1394    2
    13  1115  1117    1
    14  1115  1137    1
    15  1097  1102    1
    16  1113  1093    2
    17  1098  1100    1
    18  1081  1080    1
    19  1100  1102    1
    20  1458  1437    1
    21  1118  1119    1
    22  1118  1120    1
    23  1437  1439    1
    24  1437  1423    1
    25  1102  1112    1
    26  1095  1093    1
    27  1159  1138    2
    28  1049  1029    2
    29  1380  1394    1
    30  1380  1379    1
    31  1079  1093    1
    32  1079  1078    1
    33  1439  1438    1
    34  1394  1415    1
    35  1394  1396    1
    36  1093  1114    1
    37  1121  1120    1
    38  1121  1138    1
    39  1119  1124    1
    40  1382  1381    1
    41  1445  1444    1
    42  1080  1078    1
    43  1080  1082    1
    44  1377  1375    1
    45  1377  1379    1
    46  1377  1378    1
    47  1375  1376    1
    48  1120  1122    1
    49  1014  1013    1
    50  1138  1160    1
    51  1138  1140    1
    52  1078  1076    1
    53  1029  1012    1
    54  1029  1050    1
    55  1029  1031    1
    56  1012  1011    1
    57  1379  1381    1
    58  1440  1441    1
    59  1440  1438    1
    60  1440  1442    1
    61  1441  1446    1
    62  1423  1422    1
    63  1112  1111   ar
    64  1112  1106   ar
    65  1076  1077    1
    66  1076  1074    1
    67  1396  1395    1
    68  1395  1397    1
    69  1378  1383    1
    70  1381  1383    1
    71  1359  1358    1
    72  1446  1444    1
    73  1446  1456    1
    74  1123  1122    1
    75  1082  1077    1
    76  1082  1083    1
    77  1392  1374    2
    78  1444  1442    1
    79  1124  1122    1
    80  1124  1135    1
    81  1425  1424    1
    82  1376  1374    1
    83  1085  1084    2
    84  1424  1422    1
    85  1424  1426    1
    86  1443  1442    1
    87  1443  1459    1
    88  1460  1462    1
    89  1460  1461    1
    90  1111  1110   ar
    91  1480  1459    2
    92  1013  1011    1
    93  1013  1015    1
    94  1422  1420    1
    95  1105  1106   ar
    96  1105  1104   ar
    97  1363  1362    1
    98  1434  1433   ar
    99  1434  1427   ar
   100  1383  1384    1
   101  1433  1431   ar
   102  1140  1139    1
   103  1011  1009    1
   104  1074  1075    1
   105  1139  1141    1
   106  1106  1107   ar
   107  1357  1374    1
   108  1357  1356    1
   109  1031  1030    1
   110  1462  1463    1
   111  1462  1464    1
   112  1374  1393    1
   113  1134  1135   ar
   114  1134  1133   ar
   115  1463  1468    1
   116  1030  1032    1
   117  1009  1010    1
   118  1009  1007    1
   119  1358  1356    1
   120  1358  1360    1
   121  1435  1417    2
   122  1135  1129   ar
   123  1459  1461    1
   124  1459  1481    1
   125  1456  1450   ar
   126  1456  1455   ar
   127  1397  1399    1
   128  1397  1398    1
   129  1083  1084   ar
   130  1083  1090   ar
   131  1084  1086   ar
   132  1059  1058    1
   133  1449  1450   ar
   134  1449  1448   ar
   135  1364  1362   ar
   136  1364  1365   ar
   137  1362  1361   ar
   138  1110  1107   ar
   139  1015  1010    1
   140  1015  1026    1
   141  1426  1427    1
   142  1426  1421    1
   143  1104  1103   ar
   144  1399  1401    1
   145  1399  1400    1
   146  1046  1047   ar
   147  1046  1043   ar
   148  1356  1354    1
   149  1427  1428   ar
   150  1419  1417    1
   151  1419  1418    1
   152  1450  1451   ar
   153  1018  1017    1
   154  1107  1108   ar
   155  1047  1048   ar
   156  1431  1432    1
   157  1431  1430   ar
   158  1075  1073    1
   159  1007  1008    1
   160  1420  1421    1
   161  1420  1418    1
   162  1467  1466    1
   163  1141  1142    1
   164  1141  1143    1
   165  1133  1130   ar
   166  1455  1454   ar
   167  1384  1391   ar
   168  1384  1385   ar
   169  1468  1466    1
   170  1468  1479    1
   171  1019  1017   ar
   172  1019  1020   ar
   173  1448  1447   ar
   174  1398  1403    1
   175  1464  1465    1
   176  1464  1466    1
   177  1465  1482    1
   178  1360  1355    1
   179  1360  1371    1
   180  1401  1403    1
   181  1401  1402    1
   182  1417  1400    1
   183  1417  1436    1
   184  1142  1147    1
   185  1090  1089   ar
   186  1086  1087   ar
   187  1032  1033    1
   188  1032  1034    1
   189  1129  1130   ar
   190  1129  1128   ar
   191  1391  1390   ar
   192  1017  1016   ar
   193  1354  1355    1
   194  1354  1352    1
   195  1386  1385    2
   196  1045  1044    1
   197  1058  1060    1
   198  1058  1056    1
   199  1413  1412   ar
   200  1413  1414   ar
   201  1361  1367   ar
   202  1026  1020   ar
   203  1026  1025   ar
   204  1365  1371   ar
   205  1365  1366   ar
   206  1103  1108   ar
   207  1033  1038    1
   208  1451  1454   ar
   209  1451  1452   ar
   210  1428  1430   ar
   211  1428  1429    2
   212  1043  1044   ar
   213  1043  1042   ar
   214  1108  1109    1
   215  1144  1143    1
   216  1144  1161    1
   217  1385  1387   ar
   218  1020  1021   ar
   219  1057  1073    1
   220  1057  1056    1
   221  1130  1131   ar
   222  1403  1414    1
   223  1503  1482    2
   224  1479  1478   ar
   225  1479  1473   ar
   226  1478  1477   ar
   227  1143  1145    1
   228  1371  1370   ar
   229  1048  1038    1
   230  1048  1042   ar
   231  1128  1126   ar
   232  1008  1006    1
   233  1447  1452   ar
   234  1073  1091    2
   235  1073  1092    1
   236  1412  1409   ar
   237  1182  1161    2
   238  1060  1070    1
   239  1060  1055    1
   240  1044  1039   ar
   241  1087  1089   ar
   242  1087  1088    1
   243  1482  1504    1
   244  1482  1484    1
   245  1157  1156   ar
   246  1157  1158   ar
   247  1063  1062   ar
   248  1063  1064   ar
   249  1414  1408   ar
   250  1034  1036    1
   251  1034  1035    1
   252  1056  1054    1
   253  1036  1038    1
   254  1036  1037    1
   255  1062  1061   ar
   256  1352  1353    1
   257  1452  1453    1
   258   994   993    1
   259  1147  1158    1
   260  1147  1145    1
   261  1016  1022   ar
   262  1390  1388   ar
   263  1027  1006    2
   264  1070  1064   ar
   265  1070  1069   ar
   266  1042  1041   ar
   267  1064  1065   ar
   268  1161  1183    1
   269  1161  1163    1
   270   998   997    2
   271  1366  1367   ar
   272  1366  1369   ar
   273  1367  1368    2
   274  1025  1024   ar
   275  1477  1474   ar
   276  1156  1153   ar
   277  1339  1338    1
   278  1343  1342    2
   279  1473  1472   ar
   280  1473  1474   ar
   281  1061  1066   ar
   282  1158  1152   ar
   283   992  1006    1
   284   992   991    1
   285  1145  1146    1
   286  1021  1022   ar
   287  1021  1024   ar
   288  1387  1388   ar
   289  1071  1051    2
   290  1006  1028    1
   291  1483  1484    1
   292  1483  1485    1
   293   993   991    1
   294   993   995    1
   295  1131  1132    2
   296  1131  1125   ar
   297  1353  1351    1
   298  1069  1068   ar
   299  1126  1125   ar
   300  1126  1127    1
   301  1065  1066   ar
   302  1065  1068   ar
   303  1370  1369   ar
   304  1472  1470   ar
   305  1409  1408   ar
   306  1409  1410   ar
   307  1055  1054    1
   308  1066  1067    1
   309  1408  1407   ar
   310  1388  1389    1
   311  1039  1040   ar
   312  1035  1051    1
   313  1053  1051    1
   314  1053  1052    1
   315  1022  1023    2
   316  1474  1475   ar
   317  1054  1052    1
   318  1338  1340    1
   319  1338  1336    1
   320   991   989    1
   321   997   999   ar
   322   997   996   ar
   323  1051  1072    1
   324  1041  1040   ar
   325  1342  1344   ar
   326  1342  1341   ar
   327  1163  1162    1
   328  1486  1485    1
   329  1486  1491    1
   330   918   917    1
   331  1337  1351    1
   332  1337  1336    1
   333  1485  1487    1
   334  1153  1152   ar
   335  1153  1154   ar
   336   999  1000   ar
   337  1152  1151   ar
   338   995   996    1
   339   995   990    1
   340  1344  1345   ar
   341  1179  1180   ar
   342  1179  1176   ar
   343  1470  1471    1
   344  1470  1469   ar
   345  1410  1411    2
   346  1410  1404   ar
   347  1407  1405   ar
   348  1351  1373    2
   349  1351  1372    1
   350  1340  1341    1
   351  1340  1335    1
   352  1180  1181   ar
   353   996  1003   ar
   354  1475  1469   ar
   355  1475  1476    2
   356  1336  1334    1
   357  1341  1348   ar
   358   989   990    1
   359   989   987    1
   360  1501  1500   ar
   361  1501  1502   ar
   362  1178  1177    2
   363  1162  1164    1
   364   917   912   ar
   365   917   916   ar
   366  1154  1155    2
   367  1154  1148   ar
   368  1491  1502    1
   369  1491  1489    1
   370  1151  1149   ar
   371   912   913   ar
   372  1000  1001    2
   373  1000  1002   ar
   374  1487  1488    1
   375  1487  1489    1
   376  1405  1404   ar
   377  1405  1406    1
   378  1345  1346    2
   379  1345  1347   ar
   380  1500  1497   ar
   381  1176  1177   ar
   382  1176  1175   ar
   383  1334  1335    1
   384  1334  1332    1
   385  1165  1164    1
   386  1165  1170    1
   387  1502  1496   ar
   388  1003  1002   ar
   389  1177  1171   ar
   390  1181  1175   ar
   391  1181  1170    1
   392  1488  1505    1
   393   987   988    1
   394  1348  1347   ar
   395  1164  1166    1
   396  1489  1490    1
   397  1323  1322    2
   398   916   919   ar
   399   916   915   ar
   400  1324  1322   ar
   401  1324  1325   ar
   402  1326  1325    1
   403  1199  1198    2
   404  1149  1148   ar
   405  1149  1150    1
   406   913   914   ar
   407  1175  1174   ar
   408   919   920   ar
   409  1170  1168    1
   410  1497  1496   ar
   411  1497  1498   ar
   412  1496  1495   ar
   413   988   986    1
   414  1203  1184    2
   415  1322  1321   ar
   416  1332  1333    1
   417  1325  1327   ar
   418  1166  1168    1
   419  1166  1167    1
   420   978   977    2
   421  1171  1172   ar
   422  1505  1527    2
   423  1505  1526    1
   424  1505  1507    1
   425  1200  1198   ar
   426  1200  1201   ar
   427  1198  1197   ar
   428  1289  1268    2
   429   979   977   ar
   430   979   980   ar
   431   915   914   ar
   432   915   921   ar
   433  1266  1248    2
   434  1498  1499    2
   435  1498  1492   ar
   436   896   895    2
   437  1333  1331    1
   438  1495  1493   ar
   439  1168  1169    1
   440   977   976   ar
   441   920   921   ar
   442  1174  1172   ar
   443  1522  1521    2
   444  1290  1268    1
   445   981   980    1
   446  1005   986    2
   447  1306  1305    1
   448  1167  1184    1
   449   986  1004    1
   450   986   972    1
   451  1172  1173    1
   452   980   982   ar
   453  1523  1524   ar
   454  1523  1520   ar
   455  1184  1202    1
   456  1184  1186    1
   457  1268  1270    1
   458  1268  1254    1
   459  1321  1320    1
   460  1321  1328   ar
   461  1327  1328   ar
   462  1507  1506    1
   463   921   911    1
   464  1201  1194   ar
   465  1246  1226    2
   466  1319  1318    1
   467  1267  1248    1
   468   973   974    1
   469   973   975    1
   470   973   971    1
   471  1318  1320    1
   472  1318  1316    1
   473  1197  1195   ar
   474   901   879    2
   475  1269  1270    1
   476  1269  1271    1
   477  1492  1493   ar
   478  1493  1494    1
   479  1248  1250    1
   480  1248  1232    1
   481   895   894   ar
   482   895   889   ar
   483   976   975    1
   484   976   983   ar
   485  1521  1520   ar
   486  1521  1515   ar
   487  1524  1525   ar
   488  1304  1305   ar
   489  1304  1302   ar
   490  1320  1315    1
   491   897   894   ar
   492   897   898   ar
   493  1305  1307   ar
   494  1520  1519   ar
   495  1287  1286   ar
   496  1287  1288   ar
   497  1286  1283   ar
   498   975   970    1
   499   982   983   ar
   500  1186  1185    1
   501  1331  1350    2
   502  1331  1317    1
   503  1331  1349    1
   504  1254  1253    1
   505   971   972    1
   506   971   969    1
   507   894   893   ar
   508  1250  1249    1
   509  1272  1271    1
   510  1272  1277    1
   511   889   890   ar
   512   860   862    1
   513   860   861    1
   514  1316  1317    1
   515  1316  1314    1
   516   862   863    1
   517   862   864    1
   518  1271  1273    1
   519  1194  1195   ar
   520  1194  1193    1
   521   878   859    2
   522  1195  1196    2
   523  1506  1508    1
   524   961   960    1
   525  1226  1247    1
   526  1226  1228    1
   527  1226  1210    1
   528   923   902    2
   529   911   906    1
   530   911   909    1
   531  1515  1516   ar
   532  1232  1231    1
   533   898   899   ar
   534  1249  1251    1
   535  1303  1302    2
   536  1302  1301   ar
   537   865   879    1
   538   865   864    1
   539   879   900    1
   540   879   881    1
   541  1525  1519   ar
   542  1525  1514    1
   543  1519  1518   ar
   544  1307  1308   ar
   545  1509  1508    1
   546  1509  1514    1
   547  1288  1277    1
   548  1288  1282   ar
   549   863   868    1
   550  1227  1228    1
   551  1227  1229    1
   552   910   909    1
   553  1315  1314    1
   554  1283  1284   ar
   555  1283  1282   ar
   556  1253  1251    1
   557  1253  1255    1
   558   864   866    1
   559   906   905    1
   560  1285  1284    2
   561   922   902    1
   562   970   969    1
   563  1185  1187    1
   564  1277  1275    1
   565  1188  1193    1
   566  1188  1187    1
   567   909   907    1
   568   893   899   ar
   569   893   892   ar
   570   851   850    2
   571   969   967    1
   572  1508  1510    1
   573   960   959   ar
   574   960   962   ar
   575  1225  1204    2
   576   890   892   ar
   577   890   891    1
   578   861   859    1
   579  1314  1312    1
   580   881   880    1
   581   902   904    1
   582   902   885    1
   583  1231  1229    1
   584  1231  1233    1
   585  1251  1252    1
   586  1193  1191    1
   587  1514  1512    1
   588  1210  1209    1
   589  1516  1518   ar
   590  1516  1517    1
   591  1284  1278   ar
   592   959   957   ar
   593   859   845    1
   594   859   877    1
   595  1282  1281   ar
   596   899   888    1
   597  1273  1275    1
   598  1273  1274    1
   599  1301  1308   ar
   600  1301  1300    1
   601  1229  1230    1
   602   845   844    1
   603   985   966    2
   604  1187  1189    1
   605  1189  1191    1
   606  1189  1190    1
   607   968   967    1
   608   968   966    1
   609   868   866    1
   610   868   869    1
   611   962   963   ar
   612  1275  1276    1
   613   904   903    1
   614   847   846    1
   615  1255  1256    1
   616  1255  1257    1
   617  1549  1528    2
   618  1330  1311    2
   619   884   885    1
   620   884   886    1
   621   884   882    1
   622  1191  1192    1
   623  1313  1312    1
   624  1313  1311    1
   625  1510  1512    1
   626  1510  1511    1
   627   866   867    1
   628   850   852   ar
   629   850   849   ar
   630   905   907    1
   631   905   903    1
   632  1274  1291    1
   633   957   958    2
   634   957   956   ar
   635   907   908    1
   636  1252  1257    1
   637  1209  1207    1
   638  1209  1211    1
   639  1265  1264   ar
   640  1265  1258   ar
   641  1233  1234    1
   642  1233  1235    1
   643   966   984    1
   644   966   952    1
   645   880   882    1
   646  1278  1279   ar
   647  1512  1513    1
   648  1281  1279   ar
   649  1204  1190    1
   650  1204  1206    1
   651  1204  1224    1
   652   886   888    1
   653   886   887    1
   654   888   883    1
   655   871   870    2
   656  1298  1300    1
   657  1298  1296    1
   658  1298  1299    1
   659   848   846    1
   660   848   849    1
   661   848   843    1
   662  1300  1295    1
   663  1264  1262   ar
   664   869   870   ar
   665   869   876   ar
   666   852   853   ar
   667  1548  1528    1
   668   963   956   ar
   669   883   882    1
   670   844   846    1
   671   844   842    1
   672  1230  1235    1
   673  1212  1211    1
   674  1257  1258    1
   675  1311  1297    1
   676  1311  1329    1
   677   870   872   ar
   678  1528  1511    1
   679  1528  1530    1
   680  1279  1280    1
   681   849   856   ar
   682   956   955    1
   683  1206  1205    1
   684   908   924    1
   685   876   875   ar
   686  1207  1205    1
   687  1207  1208    1
   688  1296  1297    1
   689  1296  1294    1
   690   842   843    1
   691   842   840    1
   692  1258  1259   ar
   693  1211  1213    1
   694  1235  1245    1
   695  1244  1245   ar
   696  1244  1243   ar
   697   327   309    2
   698  1293  1291    1
   699  1293  1292    1
   700  1291  1309    2
   701  1291  1310    1
   702  1295  1294    1
   703   952   951    1
   704   872   873   ar
   705   951   953    1
   706   951   949    1
   707   953   955    1
   708   953   954    1
   709  1262  1263    2
   710  1262  1261   ar
   711   940   939    1
   712   875   873   ar
   713   307   289    2
   714  1245  1239   ar
   715   853   854    2
   716   853   855   ar
   717   290   292    1
   718   290   291    1
   719   941   942   ar
   720   941   938   ar
   721  1243  1240   ar
   722   955   950    1
   723   873   874    2
   724  1294  1292    1
   725   295   309    1
   726   295   294    1
   727  1530  1529    1
   728   856   855   ar
   729   292   294    1
   730   292   293    1
   731  1259  1261   ar
   732  1259  1260    2
   733  1208  1213    1
   734   840   841    1
   735  1545  1546   ar
   736  1545  1542   ar
   737   274   273    1
   738  1213  1223    1
   739   924   926    1
   740   924   944    2
   741   924   945    1
   742   309   328    1
   743   309   311    1
   744   297   296    1
   745  1544  1543    1
   746   942   943   ar
   747   272   289    1
   748   272   271    1
   749  1239  1240   ar
   750  1239  1238   ar
   751   939   938   ar
   752   939   934   ar
   753   926   925    1
   754   947   949    1
   755   947   948    1
   756   949   950    1
   757  1240  1241   ar
   758  1546  1547   ar
   759   938   937   ar
   760   965   946    2
   761   294   296    1
   762   289   291    1
   763   289   308    1
   764   293   298    1
   765  1585  1584    2
   766   264   246    2
   767   925   927    1
   768  1529  1531    1
   769   310   311    1
   770   310   312    1
   771   244   223    2
   772   841   839    1
   773  1223  1222   ar
   774  1223  1217   ar
   775   224   226    1
   776   224   225    1
   777  1542  1543   ar
   778  1542  1541   ar
   779   296   298    1
   780  1238  1237   ar
   781  1543  1538   ar
   782   273   271    1
   783   273   275    1
   784  1222  1221   ar
   785  1572  1550    2
   786   271   269    1
   787  1591  1573    2
   788  1584  1586   ar
   789  1584  1583   ar
   790  1241  1242    1
   791  1241  1236   ar
   792   298   299    1
   793   269   267    1
   794   269   270    1
   795   934   935   ar
   796   943   937   ar
   797   943   933    1
   798   347   329    2
   799   229   246    1
   800   229   228    1
   801   948   946    1
   802   246   265    1
   803   246   248    1
   804  1586  1587   ar
   805   937   936   ar
   806  1547  1541   ar
   807  1547  1537    1
   808  1532  1531    1
   809  1532  1537    1
   810  1592  1573    1
   811  1582  1577    1
   812  1582  1583    1
   813  1582  1580    1
   814  1217  1216   ar
   815  1217  1218   ar
   816   946   964    1
   817   946   930    1
   818   226   228    1
   819   226   227    1
   820   225   223    1
   821   267   268    1
   822  1216  1215   ar
   823  1577  1576    1
   824  1237  1236   ar
   825   927   928    1
   826   927   929    1
   827   312   313    1
   828   312   314    1
   829   928   933    1
   830  1531  1533    1
   831  1583  1590   ar
   832   223   206    1
   833   223   245    1
   834   206   205    1
   835   820   822    1
   836   820   821    1
   837   825   839    1
   838   825   824    1
   839  1541  1540   ar
   840   201   203    1
   841   201   202    1
   842  1221  1218   ar
   843   929   930    1
   844   929   931    1
   845   275   270    1
   846   275   286    1
   847  1573  1575    1
   848  1573  1556    1
   849  1538  1539   ar
   850   221   200    2
   851   570   569    1
   852   839   857    2
   853   839   858    1
   854  1581  1580    1
   855   837   819    2
   856  1533  1534    1
   857  1533  1535    1
   858  1552  1550    1
   859  1552  1551    1
   860   185   184    1
   861   822   824    1
   862   822   823    1
   863   228   230    1
   864  1218  1219   ar
   865   933   931    1
   866  1587  1588    2
   867  1587  1589   ar
   868  1537  1535    1
   869   203   205    1
   870   203   204    1
   871   935   936   ar
   872   313   318    1
   873  1550  1534    1
   874  1550  1571    1
   875   315   329    1
   876   315   314    1
   877   299   306   ar
   878   299   300   ar
   879  1580  1578    1
   880  1215  1214   ar
   881   329   348    1
   882   329   331    1
   883   183   200    1
   884   183   182    1
   885   660   661   ar
   886   660   665   ar
   887   807   806    1
   888  1575  1574    1
   889   666   665    1
   890  1590  1589   ar
   891   227   232    1
   892   827   826    1
   893   208   207    1
   894   231   230    1
   895   247   248    1
   896   247   249    1
   897   824   826    1
   898   205   207    1
   899   306   305   ar
   900   314   316    1
   901   279   277   ar
   902   279   280   ar
   903   931   932    1
   904   821   819    1
   905   805   819    1
   906   805   804    1
   907   268   266    1
   908   278   277    1
   909   202   200    1
   910  1535  1536    1
   911  1540  1539   ar
   912  1576  1574    1
   913  1576  1578    1
   914   200   222    1
   915   301   300    2
   916   819   838    1
   917  1219  1214   ar
   918  1219  1220    1
   919  1556  1555    1
   920  1555  1553    1
   921  1555  1557    1
   922   286   280   ar
   923   286   285   ar
   924   230   232    1
   925   823   828    1
   926   661   662   ar
   927  1551  1553    1
   928   665   664   ar
   929   287   266    2
   930   565   566    1
   931   565   567    1
   932   565   563    1
   933   569   571    1
   934   569   567    1
   935   184   182    1
   936   184   186    1
   937   566   571    1
   938   300   302   ar
   939   826   828    1
   940   550   549    1
   941   204   209    1
   942   207   209    1
   943   571   572    1
   944   277   276   ar
   945   232   243    1
   946   280   281   ar
   947   568   567    1
   948   568   582    1
   949   182   180    1
   950   574   573    2
   951   180   178    1
   952   180   181    1
   953  1578  1579    1
   954   326   325   ar
   955   326   319   ar
   956   331   330    1
   957   318   316    1
   958   318   319    1
   959     3     2    1
   960     3     1    1
   961   317   316    1
   962    23     1    1
   963   644   643    2
   964  1553  1554    1
   965   802   804    1
   966   802   800    1
   967   802   803    1
   968    22     1    1
   969   828   829    1
   970   806   804    1
   971   806   808    1
   972     2     4    1
   973   266   288    1
   974   266   252    1
   975   330   332    1
   976  1557  1558    1
   977  1557  1559    1
   978   554   553    2
   979   305   303   ar
   980   209   220    1
   981   603   582    2
   982   563   564    1
   983   249   250    1
   984   249   251    1
   985   178   179    1
   986   583   585    1
   987   583   584    1
   988   325   323   ar
   989   430   412    2
   990   621   620    1
   991   800   801    1
   992   431   412    1
   993   319   320   ar
   994   285   284   ar
   995   637   643   ar
   996   637   638   ar
   997   585   586    1
   998   585   587    1
   999   186   181    1
  1000   186   197    1
  1001   662   663   ar
  1002     4     5    1
  1003     4     6    1
  1004  1579  1593    1
  1005   664   663   ar
  1006   664   667   ar
  1007   586   591    1
  1008   573   572   ar
  1009   573   575   ar
  1010   531   530    1
  1011   643   642   ar
  1012   250   255    1
  1013   803   808    1
  1014   302   303   ar
  1015   572   579   ar
  1016   549   551    1
  1017   549   547    1
  1018   582   584    1
  1019   582   604    1
  1020   808   809    1
  1021   590   589    1
  1022   243   242   ar
  1023   243   237   ar
  1024   276   282   ar
  1025   639   638    1
  1026   551   546    1
  1027   551   552    1
  1028   252   251    1
  1029   412   398    1
  1030   412   414    1
  1031   242   241   ar
  1032   281   284   ar
  1033   281   282   ar
  1034   189   188    1
  1035   303   304    1
  1036   251   253    1
  1037   398   397    1
  1038   622   619   ar
  1039   622   623   ar
  1040     5    10    1
  1041   190   188   ar
  1042   190   191   ar
  1043   663   669   ar
  1044   553   552   ar
  1045   553   555   ar
  1046     7     6    1
  1047     7    24    1
  1048  1554  1559    1
  1049   787   786    1
  1050   829   836   ar
  1051   829   830   ar
  1052   564   562    1
  1053   638   640   ar
  1054  1559  1570    1
  1055   162   161    1
  1056   591   589    1
  1057   591   602    1
  1058  1569  1570   ar
  1059  1569  1568   ar
  1060   332   334    1
  1061   332   333    1
  1062   410   392    2
  1063   220   219   ar
  1064   220   214   ar
  1065   546   545    1
  1066   620   619   ar
  1067   620   615   ar
  1068   548   547    1
  1069   548   562    1
  1070   179   177    1
  1071   811   810    2
  1072   667   668   ar
  1073   397   395    1
  1074   397   399    1
  1075   323   322   ar
  1076   323   324    2
  1077   831   830    2
  1078   282   283    2
  1079     6     8    1
  1080    45    24    2
  1081   801   799    1
  1082   320   322   ar
  1083   320   321    2
  1084   371   349    2
  1085   580   562    2
  1086   552   559   ar
  1087   589   587    1
  1088   188   187   ar
  1089   587   588    1
  1090   197   191   ar
  1091   197   196   ar
  1092   575   576   ar
  1093   817   799    2
  1094   547   545    1
  1095   625   605    2
  1096   335   334    1
  1097   335   349    1
  1098   836   835   ar
  1099   588   605    1
  1100   619   618   ar
  1101   545   543    1
  1102   198   177    2
  1103   579   578   ar
  1104   530   529   ar
  1105   530   532   ar
  1106   555   556   ar
  1107  1570  1564   ar
  1108   642   645   ar
  1109   642   641   ar
  1110   411   392    1
  1111   237   236   ar
  1112   237   238   ar
  1113   191   192   ar
  1114   166   165    1
  1115   830   832   ar
  1116   255   253    1
  1117   255   256    1
  1118   400   399    1
  1119     9     8    1
  1120   623   624   ar
  1121   562   581    1
  1122  1593  1595    1
  1123  1593  1614    2
  1124  1593  1615    1
  1125  1595  1594    1
  1126   219   218   ar
  1127   370   349    1
  1128   334   336    1
  1129   809   810   ar
  1130   809   816   ar
  1131   241   238   ar
  1132    24    46    1
  1133    24    26    1
  1134   213   214   ar
  1135   213   211   ar
  1136   529   535   ar
  1137   333   338    1
  1138  1568  1565   ar
  1139   688   687    1
  1140   263   256   ar
  1141   263   262   ar
  1142   392   394    1
  1143   392   378    1
  1144   394   393    1
  1145   682   687   ar
  1146   682   683   ar
  1147   349   351    1
  1148   253   254    1
  1149   236   234   ar
  1150   414   413    1
  1151   214   215   ar
  1152   785   799    1
  1153   785   784    1
  1154   810   812   ar
  1155   615   616   ar
  1156   786   784    1
  1157   786   788    1
  1158   177   160    1
  1159   177   199    1
  1160   160   159    1
  1161    10     8    1
  1162    10    21    1
  1163   669   668   ar
  1164   669   659    1
  1165   395   393    1
  1166   395   396    1
  1167   799   818    1
  1168   602   601   ar
  1169   602   596   ar
  1170   399   401    1
  1171   791   790    2
  1172   161   159    1
  1173   161   163    1
  1174   346   345   ar
  1175   346   339   ar
  1176   645   646   ar
  1177   640   641   ar
  1178   345   343   ar
  1179   605   626    1
  1180   605   607    1
  1181   532   533   ar
  1182   256   257   ar
  1183   238   239   ar
  1184   641   647   ar
  1185   262   260   ar
  1186   687   686   ar
  1187   196   195   ar
  1188   576   578   ar
  1189   576   577    2
  1190   595   596   ar
  1191   595   593   ar
  1192   683   684   ar
  1193   559   558   ar
  1194   187   193   ar
  1195  1594  1596    1
  1196   167   165   ar
  1197   167   168   ar
  1198   816   815   ar
  1199    20    21   ar
  1200    20    19   ar
  1201   835   833   ar
  1202   165   164   ar
  1203   601   600   ar
  1204   543   544    1
  1205   618   624   ar
  1206   618   617   ar
  1207   413   415    1
  1208   556   558   ar
  1209   556   557    1
  1210   784   782    1
  1211   596   597   ar
  1212  1564  1565   ar
  1213  1564  1563   ar
  1214   159   157    1
  1215   211   212    1
  1216   211   210   ar
  1217   624   614    1
  1218   192   195   ar
  1219   192   193   ar
  1220   788   783    1
  1221   788   789    1
  1222   832   833   ar
  1223   218   215   ar
  1224    21    15   ar
  1225  1565  1566   ar
  1226   659   654    1
  1227   659   657    1
  1228   535   536    2
  1229   535   534   ar
  1230   338   336    1
  1231   338   339    1
  1232   215   216   ar
  1233    26    25    1
  1234   336   337    1
  1235   163   158    1
  1236   163   174    1
  1237   234   235    1
  1238   234   233   ar
  1239   339   340   ar
  1240   812   813   ar
  1241   616   617   ar
  1242   396   401    1
  1243   594   593    1
  1244   157   158    1
  1245   157   155    1
  1246   401   402    1
  1247   782   783    1
  1248   782   780    1
  1249   790   789   ar
  1250   790   792   ar
  1251   378   377    1
  1252   607   606    1
  1253   593   592   ar
  1254   351   350    1
  1255   646   647   ar
  1256   654   653    1
  1257   343   344    2
  1258   343   342   ar
  1259   193   194    2
  1260   833   834    2
  1261   533   534   ar
  1262   533   539   ar
  1263   647   636    1
  1264   257   258    2
  1265   257   259   ar
  1266   415   416    1
  1267   415   417    1
  1268    19    16   ar
  1269   686   685   ar
  1270   686   689   ar
  1271   239   233   ar
  1272   239   240    2
  1273   260   259   ar
  1274   260   261    2
  1275   600   597   ar
  1276   544   542    1
  1277   684   685   ar
  1278  1563  1561   ar
  1279   789   796   ar
  1280   597   598   ar
  1281   164   170   ar
  1282   168   174   ar
  1283   168   169   ar
  1284  1597  1596    1
  1285  1597  1602    1
  1286    25    27    1
  1287   815   813   ar
  1288   527   526    1
  1289  1596  1598    1
  1290   534   537   ar
  1291   416   421    1
  1292   609   614    1
  1293   609   608    1
  1294   143   142   ar
  1295   143   144   ar
  1296   658   657    1
  1297   210   216   ar
  1298   792   793   ar
  1299   174   173   ar
  1300   614   612    1
  1301   813   814    1
  1302   377   375    1
  1303   377   379    1
  1304  1566  1567    2
  1305  1566  1560   ar
  1306   657   655    1
  1307   350   352    1
  1308  1612  1611   ar
  1309  1612  1613   ar
  1310   375   373    1
  1311   375   376    1
  1312    15    16   ar
  1313    15    14   ar
  1314   216   217    2
  1315   526   528    1
  1316   526   524    1
  1317   142   147   ar
  1318   685   691   ar
  1319   367   368   ar
  1320   367   364   ar
  1321   780   781    1
  1322   592   598   ar
  1323   155   156    1
  1324   340   342   ar
  1325   340   341    2
  1326   373   374    1
  1327   513   512    2
  1328   689   690   ar
  1329   452   432    2
  1330   606   608    1
  1331   402   409   ar
  1332   402   403   ar
  1333   368   369   ar
  1334   539   528    1
  1335   539   538   ar
  1336  1611  1608   ar
  1337   653   655    1
  1338   653   651    1
  1339   649   627    2
  1340   506   512   ar
  1341   506   507   ar
  1342    16    17   ar
  1343   598   599    2
  1344   528   523    1
  1345   636   634    1
  1346   636   631    1
  1347   508   507    1
  1348   144   145   ar
  1349  1635  1616    2
  1350   418   417    1
  1351   418   432    1
  1352   409   408   ar
  1353  1598  1599    1
  1354  1598  1600    1
  1355  1561  1560   ar
  1356  1561  1562    1
  1357   417   419    1
  1358    14    12   ar
  1359   366   365    2
  1360   169   170   ar
  1361   169   172   ar
  1362   656   655    1
  1363   656   672    1
  1364   608   610    1
  1365   170   171    2
  1366   796   795   ar
  1367   771   770    2
  1368  1602  1613    1
  1369  1602  1600    1
  1370   612   610    1
  1371   612   613    1
  1372   610   611    1
  1373   512   511   ar
  1374  1613  1607   ar
  1375   634   635    1
  1376   634   632    1
  1377    27    28    1
  1378    27    29    1
  1379   537   538   ar
  1380   542   525    1
  1381   542   560    2
  1382   542   561    1
  1383  1599  1616    1
  1384    43    42   ar
  1385    43    44   ar
  1386   421   419    1
  1387   421   422    1
  1388   376   381    1
  1389   793   795   ar
  1390   793   794    1
  1391   429   422   ar
  1392   429   428   ar
  1393   404   403    2
  1394    69    47    2
  1395   525   524    1
  1396   507   509   ar
  1397   173   172   ar
  1398    28    33    1
  1399    42    39   ar
  1400   524   522    1
  1401   432   453    1
  1402   432   434    1
  1403   364   365   ar
  1404   364   363   ar
  1405   156   154    1
  1406   147   148    1
  1407   147   146   ar
  1408   420   419    1
  1409   379   380    1
  1410   379   381    1
  1411   691   690   ar
  1412   691   681    1
  1413   781   779    1
  1414  1634  1616    1
  1415   403   405   ar
  1416   352   353    1
  1417   352   354    1
  1418   651   652    1
  1419  1616  1618    1
  1420   374   372    1
  1421   353   358    1
  1422   693   672    2
  1423   652   650    1
  1424   365   359   ar
  1425   631   630    1
  1426   140   139    1
  1427   381   382    1
  1428   369   363   ar
  1429   369   358    1
  1430  1600  1601    1
  1431   354   355    1
  1432   354   356    1
  1433  1608  1607   ar
  1434  1608  1609   ar
  1435   627   629    1
  1436   627   611    1
  1437   627   648    1
  1438   629   628    1
  1439   422   423   ar
  1440   428   426   ar
  1441    17    18    2
  1442    17    11   ar
  1443   145   146   ar
  1444   145   151   ar
  1445   523   522    1
  1446   408   406   ar
  1447   676   681    1
  1448   676   675    1
  1449   767   766    1
  1450   673   674    1
  1451   673   675    1
  1452   770   772   ar
  1453   770   769   ar
  1454   632   630    1
  1455   632   633    1
  1456   733   732    2
  1457   772   773   ar
  1458    12    11   ar
  1459    12    13    1
  1460   469   468    1
  1461   490   489    1
  1462   355   372    1
  1463   672   674    1
  1464   672   692    1
  1465    29    30    1
  1466    29    31    1
  1467  1607  1606   ar
  1468  1631  1630    2
  1469   139   141    1
  1470   139   137    1
  1471   522   520    1
  1472    44    33    1
  1473    44    38   ar
  1474   146   149   ar
  1475   711   712   ar
  1476   711   708   ar
  1477   363   362   ar
  1478   511   510   ar
  1479   511   514   ar
  1480    47    30    1
  1481    47    68    1
  1482    47    49    1
  1483   766   768    1
  1484   766   764    1
  1485   681   679    1
  1486   358   356    1
  1487    33    31    1
  1488   509   510   ar
  1489    39    38   ar
  1490    39    40   ar
  1491   797   779    2
  1492   405   406   ar
  1493   630   628    1
  1494  1632  1630   ar
  1495  1632  1633   ar
  1496   712   713   ar
  1497   372   391    2
  1498   372   390    1
  1499   434   433    1
  1500   671   650    2
  1501  1610  1609    2
  1502   779   765    1
  1503   779   798    1
  1504    41    40    2
  1505   675   677    1
  1506   154   175    2
  1507   154   138    1
  1508   154   176    1
  1509  1609  1603   ar
  1510   650   633    1
  1511   650   670    1
  1512   359   360   ar
  1513   710   709    1
  1514  1618  1617    1
  1515   406   407    2
  1516  1630  1629   ar
  1517   141   151    1
  1518   141   136    1
  1519   151   150   ar
  1520   138   137    1
  1521   510   516   ar
  1522   356   357    1
  1523   484   489   ar
  1524   484   485   ar
  1525   679   677    1
  1526   679   680    1
  1527   384   383    2
  1528   768   769    1
  1529   768   763    1
  1530   774   773    1
  1531   489   488   ar
  1532   769   776   ar
  1533   382   383   ar
  1534   382   389   ar
  1535   773   775   ar
  1536   433   435    1
  1537   732   726   ar
  1538   732   731   ar
  1539   423   424    2
  1540   423   425   ar
  1541   127   126    1
  1542   426   425   ar
  1543   426   427    1
  1544   514   515   ar
  1545    38    37   ar
  1546    31    32    1
  1547   765   764    1
  1548    40    34   ar
  1549   468   470   ar
  1550   468   467   ar
  1551   137   135    1
  1552  1606  1604   ar
  1553    65    66   ar
  1554    65    62   ar
  1555   764   762    1
  1556   708   709   ar
  1557   708   707   ar
  1558  1633  1626   ar
  1559   470   471   ar
  1560   362   360   ar
  1561   149   150   ar
  1562   520   521    1
  1563   383   385   ar
  1564   125   126   ar
  1565   125   123   ar
  1566    49    48    1
  1567   677   678    1
  1568   726   727   ar
  1569   709   704   ar
  1570   360   361    1
  1571   389   388   ar
  1572   734   731   ar
  1573   734   735   ar
  1574    64    63    2
  1575    66    67   ar
  1576   713   703    1
  1577   713   707   ar
  1578  1617  1619    1
  1579   521   519    1
  1580  1651  1650    1
  1581    86    85    1
  1582  1603  1604   ar
  1583   731   730   ar
  1584   126   128   ar
  1585   485   486   ar
  1586   467   465   ar
  1587   473   454    2
  1588   136   135    1
  1589  1629  1627   ar
  1590   516   515   ar
  1591   516   505    1
  1592   776   775   ar
  1593  1604  1605    1
  1594   698   703    1
  1595   698   697    1
  1596   436   435    1
  1597   436   441    1
  1598   124   123    2
  1599   107   106    1
  1600   488   491   ar
  1601   488   487   ar
  1602   135   133    1
  1603   763   762    1
  1604   450   449   ar
  1605   450   451   ar
  1606   435   437    1
  1607   703   701    1
  1608  1655  1636    2
  1609   707   706   ar
  1610    37    35   ar
  1611    62    63   ar
  1612    62    61   ar
  1613    34    35   ar
  1614   762   760    1
  1615   123   122   ar
  1616   449   446   ar
  1617    63    57   ar
  1618   491   492   ar
  1619   471   464   ar
  1620  1626  1627   ar
  1621  1626  1625    1
  1622   678   694    1
  1623    48    50    1
  1624   735   736   ar
  1625   385   386   ar
  1626   704   705   ar
  1627   727   728    1
  1628   727   729   ar
  1629  1650  1652   ar
  1630  1650  1649   ar
  1631  1652  1653   ar
  1632   388   386   ar
  1633    35    36    1
  1634    67    61   ar
  1635    67    56    1
  1636   696   695    1
  1637   696   694    1
  1638   503   505    1
  1639   503   504    1
  1640   503   501    1
  1641    51    50    1
  1642    51    56    1
  1643   754   753    2
  1644  1620  1619    1
  1645  1620  1625    1
  1646  1619  1621    1
  1647  1627  1628    2
  1648   541   519    2
  1649    85    84   ar
  1650    85    80   ar
  1651   505   500    1
  1652   486   487   ar
  1653   730   729   ar
  1654   730   736   ar
  1655   519   540    1
  1656   519   502    1
  1657   128   129   ar
  1658    87    84   ar
  1659    87    88   ar
  1660   487   493   ar
  1661   437   438    1
  1662   437   439    1
  1663   465   464   ar
  1664   465   466    2
  1665   451   441    1
  1666   451   445   ar
  1667   697   695    1
  1668   697   699    1
  1669  1621  1622    1
  1670  1621  1623    1
  1671   753   755   ar
  1672   753   752   ar
  1673   441   439    1
  1674   106   105   ar
  1675   106   108   ar
  1676   454   438    1
  1677   454   472    1
  1678   454   456    1
  1679    61    60   ar
  1680   755   756   ar
  1681   464   463    1
  1682   133   134    1
  1683   706   705   ar
  1684   386   387    2
  1685    91    70    2
  1686   105   103   ar
  1687  1636  1622    1
  1688  1636  1654    1
  1689  1636  1638    1
  1690   747   746    1
  1691  1625  1623    1
  1692   501   502    1
  1693   501   499    1
  1694   701   702    1
  1695   701   699    1
  1696   752   750   ar
  1697   122   129   ar
  1698   122   121    1
  1699    84    83   ar
  1700    50    52    1
  1701   736   725    1
  1702   446   445   ar
  1703   446   447   ar
  1704   760   761    1
  1705    56    54    1
  1706    57    58   ar
  1707   756   749   ar
  1708   492   493   ar
  1709   694   714    2
  1710   694   715    1
  1711    80    81   ar
  1712  1649  1647   ar
  1713   761   759    1
  1714  1653  1646   ar
  1715   750   749   ar
  1716   750   751    2
  1717   134   132    1
  1718   448   447    1
  1719   749   748    1
  1720   439   440    1
  1721    88    89   ar
  1722   456   455    1
  1723    52    54    1
  1724    52    53    1
  1725  1623  1624    1
  1726   493   483    1
  1727   500   499    1
  1728   445   444   ar
  1729   699   700    1
  1730   108   109   ar
  1731   119   121    1
  1732   119   120    1
  1733   119   117    1
  1734   447   442   ar
  1735   748   746    1
  1736   748   743    1
  1737  1638  1637    1
  1738   121   116    1
  1739    60    58   ar
  1740    58    59    1
  1741   103   104    2
  1742   103   102   ar
  1743   746   744    1
  1744    54    55    1
  1745   778   759    2
  1746   499   497    1
  1747   463   458    1
  1748   463   461    1
  1749   495   474    2
  1750    70    53    1
  1751    70    90    1
  1752    70    72    1
  1753    83    89   ar
  1754    83    82   ar
  1755   458   457    1
  1756   725   720    1
  1757   725   723    1
  1758   498   497    1
  1759   498   496    1
  1760  1647  1646   ar
  1761  1647  1648    2
  1762    81    82   ar
  1763  1646  1645    1
  1764   759   745    1
  1765   759   777    1
  1766   518   496    2
  1767    89    79    1
  1768   117   118    1
  1769   117   115    1
  1770   700   716    1
  1771   444   443   ar
  1772   483   481    1
  1773   483   478    1
  1774   109   102   ar
  1775   455   457    1
  1776   132   118    1
  1777   132   153    2
  1778   132   152    1
  1779   461   459    1
  1780   461   462    1
  1781   720   719    1
  1782   459   457    1
  1783   459   460    1
  1784    72    71    1
  1785   743   742    1
  1786   481   479    1
  1787   481   482    1
  1788   442   443   ar
  1789   102   101    1
  1790   723   724    1
  1791   723   721    1
  1792   116   115    1
  1793   745   744    1
  1794  1637  1639    1
  1795   744   742    1
  1796   742   740    1
  1797   479   480    1
  1798   479   477    1
  1799   496   480    1
  1800   496   517    1
  1801   475   477    1
  1802   475   476    1
  1803  1640  1645    1
  1804  1640  1639    1
  1805   474   460    1
  1806   474   476    1
  1807   474   494    1
  1808  1645  1643    1
  1809  1641  1639    1
  1810  1641  1643    1
  1811  1641  1642    1
  1812   115   113    1
  1813   718   716    1
  1814   718   717    1
  1815   478   477    1
  1816    79    74    1
  1817    79    77    1
  1818    74    73    1
  1819   738   716    2
  1820   111    92    2
  1821   716   737    1
  1822  1643  1644    1
  1823   721   719    1
  1824   721   722    1
  1825   719   717    1
  1826   741   740    1
  1827   741   739    1
  1828   114   113    1
  1829   114   112    1
  1830    71    73    1
  1831   101    99    1
  1832   101    96    1
  1833   131   112    2
  1834    75    77    1
  1835    75    73    1
  1836    75    76    1
  1837    99    97    1
  1838    99   100    1
  1839    77    78    1
  1840   758   739    2
  1841    97    98    1
  1842    97    95    1
  1843    94    92    1
  1844    94    93    1
  1845   112    98    1
  1846   112   130    1
  1847    92    76    1
  1848    92   110    1
  1849   722   739    1
  1850    96    95    1
  1851   739   757    1
  1852    95    93    1
