1uts_lig
 OpenBabel11021811413D
libRbt.so/2013.1/901 2013/11/27
 30 33  0  0  0  0  0  0  0  0999 V2000
    4.4579    5.0150   18.9767 N   0  0  0  0  0  0  0  0  0  0  0  0
    2.8997    4.1114   20.6478 C   0  0  0  0  0  0  0  0  0  0  0  0
    2.5687    3.6774   16.1445 C   0  0  0  0  0  0  0  0  0  0  0  0
    1.7307    3.9564   19.6707 C   0  0  0  0  0  0  0  0  0  0  0  0
    1.8052    4.9847   18.6722 O   0  0  0  0  0  0  0  0  0  0  0  0
    4.2191    3.8882   19.9066 C   0  0  0  0  0  0  0  0  0  0  0  0
    2.7144    2.2427   16.4799 N   0  0  0  0  0  0  0  0  0  0  0  0
    4.1545    1.9100   16.6422 C   0  0  0  0  0  0  0  0  0  0  0  0
    4.3315    0.3898   16.6995 C   0  0  0  0  0  0  0  0  0  0  0  0
    3.9117   -0.1051   18.0299 N   0  0  0  0  0  0  0  0  0  0  0  0
    5.0158    0.1147   19.0079 C   0  0  0  0  0  0  0  0  0  0  0  0
    3.5813   -1.5553   17.9358 C   0  0  0  0  0  0  0  0  0  0  0  0
    4.5848   -0.4017   20.3902 C   0  0  0  0  0  0  0  0  0  0  0  0
    3.1531   -2.0744   19.3203 C   0  0  0  0  0  0  0  0  0  0  0  0
    4.2554   -1.8523   20.2970 N   0  0  0  0  0  0  0  0  0  0  0  0
   -1.5329    5.0185   16.9150 C   0  0  0  0  0  0  0  0  0  0  0  0
   -5.3563    3.7594   11.9446 N   0  0  0  0  0  0  0  0  0  0  0  0
   -1.2031    4.4107   15.6801 C   0  0  0  0  0  0  0  0  0  0  0  0
    0.1280    3.9788   15.4367 C   0  0  0  0  0  0  0  0  0  0  0  0
    1.1297    4.1522   16.4309 C   0  0  0  0  0  0  0  0  0  0  0  0
    0.7987    4.7801   17.6691 C   0  0  0  0  0  0  0  0  0  0  0  0
   -0.5361    5.2076   17.9084 C   0  0  0  0  0  0  0  0  0  0  0  0
   -6.3970    3.5424   12.8761 C   0  0  0  0  0  0  0  0  0  0  0  0
   -5.9036    3.5699   14.2003 C   0  0  0  0  0  0  0  0  0  0  0  0
   -3.5349    3.9675   15.0921 C   0  0  0  0  0  0  0  0  0  0  0  0
   -2.1958    4.2444   14.7041 C   0  0  0  0  0  0  0  0  0  0  0  0
   -1.8665    4.3592   13.3255 C   0  0  0  0  0  0  0  0  0  0  0  0
   -2.8755    4.1996   12.3375 C   0  0  0  0  0  0  0  0  0  0  0  0
   -4.2245    3.9349   12.7315 C   0  0  0  0  0  0  0  0  0  0  0  0
   -4.5520    3.8204   14.0950 C   0  0  0  0  0  0  0  0  0  0  0  0
  1  6  1  0  0  0  0
  2  4  1  0  0  0  0
  3  7  1  0  0  0  0
  4  5  1  0  0  0  0
  6  2  1  0  0  0  0
  7  8  1  0  0  0  0
  8  9  1  0  0  0  0
  9 10  1  0  0  0  0
 10 11  1  0  0  0  0
 10 12  1  0  0  0  0
 11 13  1  0  0  0  0
 13 15  1  0  0  0  0
 14 12  1  0  0  0  0
 15 14  1  0  0  0  0
 16 18  2  0  0  0  0
 16 22  1  0  0  0  0
 17 23  1  0  0  0  0
 17 29  1  0  0  0  0
 18 19  1  0  0  0  0
 18 26  1  0  0  0  0
 19 20  2  0  0  0  0
 20  3  1  0  0  0  0
 20 21  1  0  0  0  0
 21  5  1  0  0  0  0
 21 22  2  0  0  0  0
 23 24  2  0  0  0  0
 24 30  1  0  0  0  0
 25 26  2  0  0  0  0
 25 30  1  0  0  0  0
 26 27  1  0  0  0  0
 27 28  2  0  0  0  0
 28 29  1  0  0  0  0
 29 30  2  0  0  0  0
M  END
>  <CHROM.1>
-44.73016414,-64.10751446,-161.10580914,174.22839989,69.46529181,-168.33830842
-76.02584570,-80.55666229,-34.49595684,-85.71250415,-98.85095608,0.69430469
2.83676695,16.78599650,-0.18266189,-0.63939629,0.23204602

>  <Name>
1uts_lig

>  <RI>
0

>  <Rbt.Current_Directory>
/home/itssahil/PROJECTS/Mol_Feturizer/New_Systems/rnas/1uts

>  <Rbt.Executable>
rbdock ($Id: //depot/dev/client3/rdock/2013.1/src/exe/rbdock.cxx#4 $)

>  <Rbt.Library>
libRbt.so (2013.1, Build901 2013/11/27)

>  <Rbt.Parameter_File>
/export/apps/rDock/src/rDock_2013.1_src/data/scripts/dock_solv.prm

>  <Rbt.Receptor>
prm/pocket_docking_2.prm

>  <SCORE>
-24.9504

>  <SCORE.INTER>
-18.3394

>  <SCORE.INTER.CONST>
1

>  <SCORE.INTER.POLAR>
0

>  <SCORE.INTER.ROT>
10

>  <SCORE.INTER.SOLV>
9.9411

>  <SCORE.INTER.VDW>
-25.8066

>  <SCORE.INTER.norm>
-0.611313

>  <SCORE.INTRA>
-6.61102

>  <SCORE.INTRA.DIHEDRAL>
-6.97391

>  <SCORE.INTRA.DIHEDRAL.0>
18.0451

>  <SCORE.INTRA.POLAR>
-0.570484

>  <SCORE.INTRA.POLAR.0>
-0.196815

>  <SCORE.INTRA.REPUL>
0

>  <SCORE.INTRA.REPUL.0>
0

>  <SCORE.INTRA.SOLV>
0.565742

>  <SCORE.INTRA.SOLV.lig_0>
-14.7906

>  <SCORE.INTRA.VDW>
-1.46729

>  <SCORE.INTRA.VDW.0>
-0.411701

>  <SCORE.INTRA.norm>
-0.220367

>  <SCORE.RESTR>
0

>  <SCORE.RESTR.CAVITY>
0

>  <SCORE.RESTR.norm>
0

>  <SCORE.SYSTEM>
0

>  <SCORE.SYSTEM.CONST>
0

>  <SCORE.SYSTEM.DIHEDRAL>
0

>  <SCORE.SYSTEM.SOLV>
0

>  <SCORE.SYSTEM.norm>
0

>  <SCORE.heavy>
30

>  <SCORE.norm>
-0.831681

>  <RMSD>
0.856

$$$$
1uts_lig
 OpenBabel11021811413D
libRbt.so/2013.1/901 2013/11/27
 30 33  0  0  0  0  0  0  0  0999 V2000
    5.4899    6.0718   19.5173 N   0  0  0  0  0  0  0  0  0  0  0  0
    3.1388    5.5226   19.9732 C   0  0  0  0  0  0  0  0  0  0  0  0
    2.2004    2.0558   16.2011 C   0  0  0  0  0  0  0  0  0  0  0  0
    2.3476    5.4870   18.6625 C   0  0  0  0  0  0  0  0  0  0  0  0
    2.0913    4.1227   18.2980 O   0  0  0  0  0  0  0  0  0  0  0  0
    4.5411    4.9575   19.7398 C   0  0  0  0  0  0  0  0  0  0  0  0
    2.6164    1.6043   17.5483 N   0  0  0  0  0  0  0  0  0  0  0  0
    3.6989    0.5922   17.4253 C   0  0  0  0  0  0  0  0  0  0  0  0
    3.1236   -0.8104   17.6424 C   0  0  0  0  0  0  0  0  0  0  0  0
    4.1616   -1.6820   18.2371 N   0  0  0  0  0  0  0  0  0  0  0  0
    3.6572   -3.0844   18.2876 C   0  0  0  0  0  0  0  0  0  0  0  0
    4.4882   -1.1970   19.6079 C   0  0  0  0  0  0  0  0  0  0  0  0
    4.7315   -3.9921   18.9083 C   0  0  0  0  0  0  0  0  0  0  0  0
    5.5612   -2.1074   20.2319 C   0  0  0  0  0  0  0  0  0  0  0  0
    5.0576   -3.5083   20.2798 N   0  0  0  0  0  0  0  0  0  0  0  0
   -1.1082    4.9191   16.4649 C   0  0  0  0  0  0  0  0  0  0  0  0
   -5.4149    3.8332   11.8452 N   0  0  0  0  0  0  0  0  0  0  0  0
   -1.0843    3.9527   15.4311 C   0  0  0  0  0  0  0  0  0  0  0  0
   -0.0090    3.0281   15.3512 C   0  0  0  0  0  0  0  0  0  0  0  0
    1.0421    3.0682   16.3081 C   0  0  0  0  0  0  0  0  0  0  0  0
    1.0243    4.0540   17.3400 C   0  0  0  0  0  0  0  0  0  0  0  0
   -0.0562    4.9750   17.4169 C   0  0  0  0  0  0  0  0  0  0  0  0
   -6.4283    3.6001   12.8025 C   0  0  0  0  0  0  0  0  0  0  0  0
   -5.8815    3.4941   14.1015 C   0  0  0  0  0  0  0  0  0  0  0  0
   -3.4597    3.6876   14.9150 C   0  0  0  0  0  0  0  0  0  0  0  0
   -2.1233    3.9202   14.4904 C   0  0  0  0  0  0  0  0  0  0  0  0
   -1.8434    4.1267   13.1116 C   0  0  0  0  0  0  0  0  0  0  0  0
   -2.8988    4.1028   12.1602 C   0  0  0  0  0  0  0  0  0  0  0  0
   -4.2440    3.8823   12.5921 C   0  0  0  0  0  0  0  0  0  0  0  0
   -4.5228    3.6772   13.9558 C   0  0  0  0  0  0  0  0  0  0  0  0
  1  6  1  0  0  0  0
  2  4  1  0  0  0  0
  3  7  1  0  0  0  0
  4  5  1  0  0  0  0
  6  2  1  0  0  0  0
  7  8  1  0  0  0  0
  8  9  1  0  0  0  0
  9 10  1  0  0  0  0
 10 11  1  0  0  0  0
 10 12  1  0  0  0  0
 11 13  1  0  0  0  0
 13 15  1  0  0  0  0
 14 12  1  0  0  0  0
 15 14  1  0  0  0  0
 16 18  2  0  0  0  0
 16 22  1  0  0  0  0
 17 23  1  0  0  0  0
 17 29  1  0  0  0  0
 18 19  1  0  0  0  0
 18 26  1  0  0  0  0
 19 20  2  0  0  0  0
 20  3  1  0  0  0  0
 20 21  1  0  0  0  0
 21  5  1  0  0  0  0
 21 22  2  0  0  0  0
 23 24  2  0  0  0  0
 24 30  1  0  0  0  0
 25 26  2  0  0  0  0
 25 30  1  0  0  0  0
 26 27  1  0  0  0  0
 27 28  2  0  0  0  0
 28 29  1  0  0  0  0
 29 30  2  0  0  0  0
M  END
>  <CHROM.1>
176.27693423,67.71396131,177.93137096,161.93594613,97.03943040,-102.30679762
-149.61274097,-172.90239837,-60.65951248,-141.65181858,144.95330114,0.86604749
2.33874641,16.76081617,-0.36667255,-0.62424766,0.10045850

>  <Name>
1uts_lig

>  <RI>
0

>  <Rbt.Current_Directory>
/home/itssahil/PROJECTS/Mol_Feturizer/New_Systems/rnas/1uts

>  <Rbt.Executable>
rbdock ($Id: //depot/dev/client3/rdock/2013.1/src/exe/rbdock.cxx#4 $)

>  <Rbt.Library>
libRbt.so (2013.1, Build901 2013/11/27)

>  <Rbt.Parameter_File>
/export/apps/rDock/src/rDock_2013.1_src/data/scripts/dock_solv.prm

>  <Rbt.Receptor>
prm/pocket_docking_2.prm

>  <SCORE>
-18.3331

>  <SCORE.INTER>
-19.8002

>  <SCORE.INTER.CONST>
1

>  <SCORE.INTER.POLAR>
-0.630996

>  <SCORE.INTER.ROT>
10

>  <SCORE.INTER.SOLV>
8.94426

>  <SCORE.INTER.VDW>
-24.3449

>  <SCORE.INTER.norm>
-0.660006

>  <SCORE.INTRA>
0.657877

>  <SCORE.INTRA.DIHEDRAL>
-0.764896

>  <SCORE.INTRA.DIHEDRAL.0>
18.0451

>  <SCORE.INTRA.POLAR>
-0.33956

>  <SCORE.INTRA.POLAR.0>
-0.196815

>  <SCORE.INTRA.REPUL>
0

>  <SCORE.INTRA.REPUL.0>
0

>  <SCORE.INTRA.SOLV>
-0.16891

>  <SCORE.INTRA.SOLV.lig_0>
-14.7906

>  <SCORE.INTRA.VDW>
2.27928

>  <SCORE.INTRA.VDW.0>
-0.411701

>  <SCORE.INTRA.norm>
0.0219292

>  <SCORE.RESTR>
0.809231

>  <SCORE.RESTR.CAVITY>
0.809231

>  <SCORE.RESTR.norm>
0.0269744

>  <SCORE.SYSTEM>
0

>  <SCORE.SYSTEM.CONST>
0

>  <SCORE.SYSTEM.DIHEDRAL>
0

>  <SCORE.SYSTEM.SOLV>
0

>  <SCORE.SYSTEM.norm>
0

>  <SCORE.heavy>
30

>  <SCORE.norm>
-0.611102

>  <RMSD>
0.949

$$$$
1uts_lig
 OpenBabel11021811413D
libRbt.so/2013.1/901 2013/11/27
 30 33  0  0  0  0  0  0  0  0999 V2000
    4.5178    4.4498   22.4567 N   0  0  0  0  0  0  0  0  0  0  0  0
    3.4447    4.7557   20.2675 C   0  0  0  0  0  0  0  0  0  0  0  0
    2.4332    2.8284   15.9817 C   0  0  0  0  0  0  0  0  0  0  0  0
    2.2382    4.3557   19.4134 C   0  0  0  0  0  0  0  0  0  0  0  0
    2.3950    4.8868   18.0894 O   0  0  0  0  0  0  0  0  0  0  0  0
    3.2938    4.1695   21.6725 C   0  0  0  0  0  0  0  0  0  0  0  0
    2.1815    1.4064   16.3082 N   0  0  0  0  0  0  0  0  0  0  0  0
    3.4056    0.8041   16.8997 C   0  0  0  0  0  0  0  0  0  0  0  0
    3.1133   -0.6322   17.3437 C   0  0  0  0  0  0  0  0  0  0  0  0
    4.2281   -1.1246   18.1838 N   0  0  0  0  0  0  0  0  0  0  0  0
    5.3726   -1.5078   17.3079 C   0  0  0  0  0  0  0  0  0  0  0  0
    3.7667   -2.2972   18.9794 C   0  0  0  0  0  0  0  0  0  0  0  0
    6.5312   -2.0234   18.1769 C   0  0  0  0  0  0  0  0  0  0  0  0
    4.9271   -2.8168   19.8472 C   0  0  0  0  0  0  0  0  0  0  0  0
    6.0707   -3.1970   18.9719 N   0  0  0  0  0  0  0  0  0  0  0  0
   -1.1388    5.2289   16.8140 C   0  0  0  0  0  0  0  0  0  0  0  0
   -5.9645    3.5956   12.9409 N   0  0  0  0  0  0  0  0  0  0  0  0
   -1.1562    4.2622   15.7804 C   0  0  0  0  0  0  0  0  0  0  0  0
    0.0049    3.4880   15.5157 C   0  0  0  0  0  0  0  0  0  0  0  0
    1.1837    3.6788   16.2876 C   0  0  0  0  0  0  0  0  0  0  0  0
    1.2042    4.6656   17.3186 C   0  0  0  0  0  0  0  0  0  0  0  0
    0.0379    5.4354   17.5812 C   0  0  0  0  0  0  0  0  0  0  0  0
   -6.8331    3.6394   14.0550 C   0  0  0  0  0  0  0  0  0  0  0  0
   -6.1057    3.7939   15.2570 C   0  0  0  0  0  0  0  0  0  0  0  0
   -3.5873    4.0249   15.6671 C   0  0  0  0  0  0  0  0  0  0  0  0
   -2.3216    4.0807   15.0226 C   0  0  0  0  0  0  0  0  0  0  0  0
   -2.2405    3.9592   13.6080 C   0  0  0  0  0  0  0  0  0  0  0  0
   -3.4235    3.7845   12.8401 C   0  0  0  0  0  0  0  0  0  0  0  0
   -4.6965    3.7427   13.4902 C   0  0  0  0  0  0  0  0  0  0  0  0
   -4.7787    3.8622   14.8896 C   0  0  0  0  0  0  0  0  0  0  0  0
  1  6  1  0  0  0  0
  2  4  1  0  0  0  0
  3  7  1  0  0  0  0
  4  5  1  0  0  0  0
  6  2  1  0  0  0  0
  7  8  1  0  0  0  0
  8  9  1  0  0  0  0
  9 10  1  0  0  0  0
 10 11  1  0  0  0  0
 10 12  1  0  0  0  0
 11 13  1  0  0  0  0
 13 15  1  0  0  0  0
 14 12  1  0  0  0  0
 15 14  1  0  0  0  0
 16 18  2  0  0  0  0
 16 22  1  0  0  0  0
 17 23  1  0  0  0  0
 17 29  1  0  0  0  0
 18 19  1  0  0  0  0
 18 26  1  0  0  0  0
 19 20  2  0  0  0  0
 20  3  1  0  0  0  0
 20 21  1  0  0  0  0
 21  5  1  0  0  0  0
 21 22  2  0  0  0  0
 23 24  2  0  0  0  0
 24 30  1  0  0  0  0
 25 26  2  0  0  0  0
 25 30  1  0  0  0  0
 26 27  1  0  0  0  0
 27 28  2  0  0  0  0
 28 29  1  0  0  0  0
 29 30  2  0  0  0  0
M  END
>  <CHROM.1>
-61.04221876,-178.96006718,-141.85900760,-172.95729896,174.75035833,175.38177021
-167.97711602,-77.96346759,-44.17722023,-66.89374028,-106.74647210,0.80694949
2.41664236,17.02204891,-0.15715858,-0.60120940,0.47321388

>  <Name>
1uts_lig

>  <RI>
0

>  <Rbt.Current_Directory>
/home/itssahil/PROJECTS/Mol_Feturizer/New_Systems/rnas/1uts

>  <Rbt.Executable>
rbdock ($Id: //depot/dev/client3/rdock/2013.1/src/exe/rbdock.cxx#4 $)

>  <Rbt.Library>
libRbt.so (2013.1, Build901 2013/11/27)

>  <Rbt.Parameter_File>
/export/apps/rDock/src/rDock_2013.1_src/data/scripts/dock_solv.prm

>  <Rbt.Receptor>
prm/pocket_docking_2.prm

>  <SCORE>
-20.4565

>  <SCORE.INTER>
-17.4788

>  <SCORE.INTER.CONST>
1

>  <SCORE.INTER.POLAR>
0

>  <SCORE.INTER.ROT>
10

>  <SCORE.INTER.SOLV>
9.13016

>  <SCORE.INTER.VDW>
-24.9626

>  <SCORE.INTER.norm>
-0.582627

>  <SCORE.INTRA>
-2.97767

>  <SCORE.INTRA.DIHEDRAL>
-6.3474

>  <SCORE.INTRA.DIHEDRAL.0>
18.0451

>  <SCORE.INTRA.POLAR>
0.196815

>  <SCORE.INTRA.POLAR.0>
-0.196815

>  <SCORE.INTRA.REPUL>
0

>  <SCORE.INTRA.REPUL.0>
0

>  <SCORE.INTRA.SOLV>
-0.655052

>  <SCORE.INTRA.SOLV.lig_0>
-14.7906

>  <SCORE.INTRA.VDW>
-0.145616

>  <SCORE.INTRA.VDW.0>
-0.411701

>  <SCORE.INTRA.norm>
-0.0992557

>  <SCORE.RESTR>
0

>  <SCORE.RESTR.CAVITY>
0

>  <SCORE.RESTR.norm>
0

>  <SCORE.SYSTEM>
0

>  <SCORE.SYSTEM.CONST>
0

>  <SCORE.SYSTEM.DIHEDRAL>
0

>  <SCORE.SYSTEM.SOLV>
0

>  <SCORE.SYSTEM.norm>
0

>  <SCORE.heavy>
30

>  <SCORE.norm>
-0.681882

>  <RMSD>
1.023

$$$$
1uts_lig
 OpenBabel11021811413D
libRbt.so/2013.1/901 2013/11/27
 30 33  0  0  0  0  0  0  0  0999 V2000
    4.4391    4.3211   19.2636 N   0  0  0  0  0  0  0  0  0  0  0  0
    2.6558    5.6024   20.3660 C   0  0  0  0  0  0  0  0  0  0  0  0
    2.5650    3.4414   15.7168 C   0  0  0  0  0  0  0  0  0  0  0  0
    1.7941    5.6520   19.1010 C   0  0  0  0  0  0  0  0  0  0  0  0
    1.8761    4.3918   18.4193 O   0  0  0  0  0  0  0  0  0  0  0  0
    4.1351    5.5822   19.9767 C   0  0  0  0  0  0  0  0  0  0  0  0
    3.0878    2.3971   16.6270 N   0  0  0  0  0  0  0  0  0  0  0  0
    2.4480    1.0923   16.3122 C   0  0  0  0  0  0  0  0  0  0  0  0
    2.3834    0.2290   17.5755 C   0  0  0  0  0  0  0  0  0  0  0  0
    3.3239   -0.9064   17.4449 N   0  0  0  0  0  0  0  0  0  0  0  0
    3.0154   -1.9241   18.4904 C   0  0  0  0  0  0  0  0  0  0  0  0
    4.7211   -0.4109   17.5976 C   0  0  0  0  0  0  0  0  0  0  0  0
    3.9929   -3.1034   18.3603 C   0  0  0  0  0  0  0  0  0  0  0  0
    5.7006   -1.5916   17.4711 C   0  0  0  0  0  0  0  0  0  0  0  0
    5.3904   -2.6086   18.5141 N   0  0  0  0  0  0  0  0  0  0  0  0
   -1.5327    4.5487   16.8109 C   0  0  0  0  0  0  0  0  0  0  0  0
   -5.5299    3.8352   11.8703 N   0  0  0  0  0  0  0  0  0  0  0  0
   -1.2401    4.1137   15.4962 C   0  0  0  0  0  0  0  0  0  0  0  0
    0.0900    3.7568   15.1482 C   0  0  0  0  0  0  0  0  0  0  0  0
    1.1280    3.8321   16.1171 C   0  0  0  0  0  0  0  0  0  0  0  0
    0.8337    4.2866   17.4377 C   0  0  0  0  0  0  0  0  0  0  0  0
   -0.5001    4.6395   17.7812 C   0  0  0  0  0  0  0  0  0  0  0  0
   -6.5417    3.5575   12.8174 C   0  0  0  0  0  0  0  0  0  0  0  0
   -6.0028    3.4682   14.1209 C   0  0  0  0  0  0  0  0  0  0  0  0
   -3.5982    3.7555   14.9573 C   0  0  0  0  0  0  0  0  0  0  0  0
   -2.2685    4.0434   14.5459 C   0  0  0  0  0  0  0  0  0  0  0  0
   -1.9847    4.2668   13.1705 C   0  0  0  0  0  0  0  0  0  0  0  0
   -3.0297    4.2044   12.2093 C   0  0  0  0  0  0  0  0  0  0  0  0
   -4.3688    3.9282   12.6281 C   0  0  0  0  0  0  0  0  0  0  0  0
   -4.6514    3.7064   13.9884 C   0  0  0  0  0  0  0  0  0  0  0  0
  1  6  1  0  0  0  0
  2  4  1  0  0  0  0
  3  7  1  0  0  0  0
  4  5  1  0  0  0  0
  6  2  1  0  0  0  0
  7  8  1  0  0  0  0
  8  9  1  0  0  0  0
  9 10  1  0  0  0  0
 10 11  1  0  0  0  0
 10 12  1  0  0  0  0
 11 13  1  0  0  0  0
 13 15  1  0  0  0  0
 14 12  1  0  0  0  0
 15 14  1  0  0  0  0
 16 18  2  0  0  0  0
 16 22  1  0  0  0  0
 17 23  1  0  0  0  0
 17 29  1  0  0  0  0
 18 19  1  0  0  0  0
 18 26  1  0  0  0  0
 19 20  2  0  0  0  0
 20  3  1  0  0  0  0
 20 21  1  0  0  0  0
 21  5  1  0  0  0  0
 21 22  2  0  0  0  0
 23 24  2  0  0  0  0
 24 30  1  0  0  0  0
 25 26  2  0  0  0  0
 25 30  1  0  0  0  0
 26 27  1  0  0  0  0
 27 28  2  0  0  0  0
 28 29  1  0  0  0  0
 29 30  2  0  0  0  0
M  END
>  <CHROM.1>
174.83319314,70.37229147,74.16254659,165.31303030,-65.69183608,-151.11650337
-110.16858228,-165.52334849,-30.82627930,-124.99576098,133.33429594,0.60967821
2.65742823,16.44996634,-0.18600661,-0.60018816,0.33445001

>  <Name>
1uts_lig

>  <RI>
0

>  <Rbt.Current_Directory>
/home/itssahil/PROJECTS/Mol_Feturizer/New_Systems/rnas/1uts

>  <Rbt.Executable>
rbdock ($Id: //depot/dev/client3/rdock/2013.1/src/exe/rbdock.cxx#4 $)

>  <Rbt.Library>
libRbt.so (2013.1, Build901 2013/11/27)

>  <Rbt.Parameter_File>
/export/apps/rDock/src/rDock_2013.1_src/data/scripts/dock_solv.prm

>  <Rbt.Receptor>
prm/pocket_docking_2.prm

>  <SCORE>
-28.1821

>  <SCORE.INTER>
-24.4867

>  <SCORE.INTER.CONST>
1

>  <SCORE.INTER.POLAR>
-0.8

>  <SCORE.INTER.ROT>
10

>  <SCORE.INTER.SOLV>
9.92243

>  <SCORE.INTER.VDW>
-27.232

>  <SCORE.INTER.norm>
-0.816224

>  <SCORE.INTRA>
-3.71864

>  <SCORE.INTRA.DIHEDRAL>
-4.13303

>  <SCORE.INTRA.DIHEDRAL.0>
18.0451

>  <SCORE.INTRA.POLAR>
-0.969517

>  <SCORE.INTRA.POLAR.0>
-0.196815

>  <SCORE.INTRA.REPUL>
0.00994171

>  <SCORE.INTRA.REPUL.0>
0

>  <SCORE.INTRA.SOLV>
0.568148

>  <SCORE.INTRA.SOLV.lig_0>
-14.7906

>  <SCORE.INTRA.VDW>
1.31045

>  <SCORE.INTRA.VDW.0>
-0.411701

>  <SCORE.INTRA.norm>
-0.123955

>  <SCORE.RESTR>
0.0232191

>  <SCORE.RESTR.CAVITY>
0.0232191

>  <SCORE.RESTR.norm>
0.000773972

>  <SCORE.SYSTEM>
0

>  <SCORE.SYSTEM.CONST>
0

>  <SCORE.SYSTEM.DIHEDRAL>
0

>  <SCORE.SYSTEM.SOLV>
0

>  <SCORE.SYSTEM.norm>
0

>  <SCORE.heavy>
30

>  <SCORE.norm>
-0.939405

>  <RMSD>
1.060

$$$$
1uts_lig
 OpenBabel11021811413D
libRbt.so/2013.1/901 2013/11/27
 30 33  0  0  0  0  0  0  0  0999 V2000
    4.3217    5.4505   21.7402 N   0  0  0  0  0  0  0  0  0  0  0  0
    2.8174    3.9034   20.5651 C   0  0  0  0  0  0  0  0  0  0  0  0
    2.2356    2.3459   16.1133 C   0  0  0  0  0  0  0  0  0  0  0  0
    1.6315    3.8183   19.5999 C   0  0  0  0  0  0  0  0  0  0  0  0
    2.0326    4.3002   18.3089 O   0  0  0  0  0  0  0  0  0  0  0  0
    3.1966    5.3696   20.7815 C   0  0  0  0  0  0  0  0  0  0  0  0
    3.4548    3.0091   16.6288 N   0  0  0  0  0  0  0  0  0  0  0  0
    4.5051    1.9905   16.8938 C   0  0  0  0  0  0  0  0  0  0  0  0
    4.1321    1.1725   18.1337 C   0  0  0  0  0  0  0  0  0  0  0  0
    5.1274    0.0948   18.3307 N   0  0  0  0  0  0  0  0  0  0  0  0
    4.9283   -0.9553   17.2908 C   0  0  0  0  0  0  0  0  0  0  0  0
    4.9644   -0.4853   19.6937 C   0  0  0  0  0  0  0  0  0  0  0  0
    5.9581   -2.0784   17.4946 C   0  0  0  0  0  0  0  0  0  0  0  0
    5.9926   -1.6126   19.8975 C   0  0  0  0  0  0  0  0  0  0  0  0
    5.7946   -2.6599   18.8571 N   0  0  0  0  0  0  0  0  0  0  0  0
   -1.2705    4.9315   16.5995 C   0  0  0  0  0  0  0  0  0  0  0  0
   -5.6180    3.7540   12.0454 N   0  0  0  0  0  0  0  0  0  0  0  0
   -1.2041    4.0181   15.5204 C   0  0  0  0  0  0  0  0  0  0  0  0
   -0.0649    3.1835   15.3685 C   0  0  0  0  0  0  0  0  0  0  0  0
    1.0078    3.2604   16.2986 C   0  0  0  0  0  0  0  0  0  0  0  0
    0.9461    4.1937   17.3767 C   0  0  0  0  0  0  0  0  0  0  0  0
   -0.1982    5.0244   17.5255 C   0  0  0  0  0  0  0  0  0  0  0  0
   -6.6048    3.5317   13.0326 C   0  0  0  0  0  0  0  0  0  0  0  0
   -6.0254    3.4650   14.3201 C   0  0  0  0  0  0  0  0  0  0  0  0
   -3.5876    3.7097   15.0692 C   0  0  0  0  0  0  0  0  0  0  0  0
   -2.2651    3.9489   14.6065 C   0  0  0  0  0  0  0  0  0  0  0  0
   -2.0213    4.1248   13.2165 C   0  0  0  0  0  0  0  0  0  0  0  0
   -3.0989    4.0637   12.2921 C   0  0  0  0  0  0  0  0  0  0  0  0
   -4.4303    3.8367   12.7621 C   0  0  0  0  0  0  0  0  0  0  0  0
   -4.6733    3.6619   14.1368 C   0  0  0  0  0  0  0  0  0  0  0  0
  1  6  1  0  0  0  0
  2  4  1  0  0  0  0
  3  7  1  0  0  0  0
  4  5  1  0  0  0  0
  6  2  1  0  0  0  0
  7  8  1  0  0  0  0
  8  9  1  0  0  0  0
  9 10  1  0  0  0  0
 10 11  1  0  0  0  0
 10 12  1  0  0  0  0
 11 13  1  0  0  0  0
 13 15  1  0  0  0  0
 14 12  1  0  0  0  0
 15 14  1  0  0  0  0
 16 18  2  0  0  0  0
 16 22  1  0  0  0  0
 17 23  1  0  0  0  0
 17 29  1  0  0  0  0
 18 19  1  0  0  0  0
 18 26  1  0  0  0  0
 19 20  2  0  0  0  0
 20  3  1  0  0  0  0
 20 21  1  0  0  0  0
 21  5  1  0  0  0  0
 21 22  2  0  0  0  0
 23 24  2  0  0  0  0
 24 30  1  0  0  0  0
 25 26  2  0  0  0  0
 25 30  1  0  0  0  0
 26 27  1  0  0  0  0
 27 28  2  0  0  0  0
 28 29  1  0  0  0  0
 29 30  2  0  0  0  0
M  END
>  <CHROM.1>
-176.40352216,65.06906446,160.09776348,178.34664968,178.63408983,-72.13341934
175.69464079,-72.62628383,-55.19210446,149.29626394,-111.46797244,0.94580716
2.68917264,16.81647908,0.03217411,-0.60631381,0.60552046

>  <Name>
1uts_lig

>  <RI>
0

>  <Rbt.Current_Directory>
/home/itssahil/PROJECTS/Mol_Feturizer/New_Systems/rnas/1uts

>  <Rbt.Executable>
rbdock ($Id: //depot/dev/client3/rdock/2013.1/src/exe/rbdock.cxx#4 $)

>  <Rbt.Library>
libRbt.so (2013.1, Build901 2013/11/27)

>  <Rbt.Parameter_File>
/export/apps/rDock/src/rDock_2013.1_src/data/scripts/dock_solv.prm

>  <Rbt.Receptor>
prm/pocket_docking_2.prm

>  <SCORE>
-21.8908

>  <SCORE.INTER>
-16.3772

>  <SCORE.INTER.CONST>
1

>  <SCORE.INTER.POLAR>
0

>  <SCORE.INTER.ROT>
10

>  <SCORE.INTER.SOLV>
9.35835

>  <SCORE.INTER.VDW>
-24.3043

>  <SCORE.INTER.norm>
-0.545908

>  <SCORE.INTRA>
-5.52512

>  <SCORE.INTRA.DIHEDRAL>
-8.0663

>  <SCORE.INTRA.DIHEDRAL.0>
18.0451

>  <SCORE.INTRA.POLAR>
-0.671267

>  <SCORE.INTRA.POLAR.0>
-0.196815

>  <SCORE.INTRA.REPUL>
0

>  <SCORE.INTRA.REPUL.0>
0

>  <SCORE.INTRA.SOLV>
-0.12591

>  <SCORE.INTRA.SOLV.lig_0>
-14.7906

>  <SCORE.INTRA.VDW>
0.853294

>  <SCORE.INTRA.VDW.0>
-0.411701

>  <SCORE.INTRA.norm>
-0.184171

>  <SCORE.RESTR>
0.0115861

>  <SCORE.RESTR.CAVITY>
0.0115861

>  <SCORE.RESTR.norm>
0.000386203

>  <SCORE.SYSTEM>
0

>  <SCORE.SYSTEM.CONST>
0

>  <SCORE.SYSTEM.DIHEDRAL>
0

>  <SCORE.SYSTEM.SOLV>
0

>  <SCORE.SYSTEM.norm>
0

>  <SCORE.heavy>
30

>  <SCORE.norm>
-0.729693

>  <RMSD>
1.098

$$$$
1uts_lig
 OpenBabel11021811413D
libRbt.so/2013.1/901 2013/11/27
 30 33  0  0  0  0  0  0  0  0999 V2000
    3.4042    6.0719   20.0231 N   0  0  0  0  0  0  0  0  0  0  0  0
    2.7660    3.7797   20.6361 C   0  0  0  0  0  0  0  0  0  0  0  0
    2.4934    3.0930   15.9359 C   0  0  0  0  0  0  0  0  0  0  0  0
    1.5971    3.6989   19.6501 C   0  0  0  0  0  0  0  0  0  0  0  0
    1.9096    4.4648   18.4772 O   0  0  0  0  0  0  0  0  0  0  0  0
    2.9189    5.2189   21.1315 C   0  0  0  0  0  0  0  0  0  0  0  0
    2.8709    2.0766   16.9442 N   0  0  0  0  0  0  0  0  0  0  0  0
    4.1840    1.4785   16.5852 C   0  0  0  0  0  0  0  0  0  0  0  0
    4.6866    0.6031   17.7370 C   0  0  0  0  0  0  0  0  0  0  0  0
    3.7713   -0.5461   17.9179 N   0  0  0  0  0  0  0  0  0  0  0  0
    2.8849   -0.2899   19.0895 C   0  0  0  0  0  0  0  0  0  0  0  0
    4.5707   -1.7855   18.1318 C   0  0  0  0  0  0  0  0  0  0  0  0
    1.9354   -1.4833   19.2829 C   0  0  0  0  0  0  0  0  0  0  0  0
    3.6208   -2.9806   18.3293 C   0  0  0  0  0  0  0  0  0  0  0  0
    2.7343   -2.7230   19.4980 N   0  0  0  0  0  0  0  0  0  0  0  0
   -1.4645    4.7589   16.8157 C   0  0  0  0  0  0  0  0  0  0  0  0
   -5.5179    3.7743   11.9651 N   0  0  0  0  0  0  0  0  0  0  0  0
   -1.2198    4.1230   15.5752 C   0  0  0  0  0  0  0  0  0  0  0  0
    0.0651    3.5857   15.2963 C   0  0  0  0  0  0  0  0  0  0  0  0
    1.1057    3.6818   16.2606 C   0  0  0  0  0  0  0  0  0  0  0  0
    0.8615    4.3380   17.5044 C   0  0  0  0  0  0  0  0  0  0  0  0
   -0.4276    4.8712   17.7792 C   0  0  0  0  0  0  0  0  0  0  0  0
   -6.5312    3.5383   12.9218 C   0  0  0  0  0  0  0  0  0  0  0  0
   -5.9913    3.4852   14.2269 C   0  0  0  0  0  0  0  0  0  0  0  0
   -3.5825    3.7732   15.0509 C   0  0  0  0  0  0  0  0  0  0  0  0
   -2.2504    4.0333   14.6288 C   0  0  0  0  0  0  0  0  0  0  0  0
   -1.9662    4.2090   13.2466 C   0  0  0  0  0  0  0  0  0  0  0  0
   -3.0132    4.1270   12.2892 C   0  0  0  0  0  0  0  0  0  0  0  0
   -4.3547    3.8791   12.7182 C   0  0  0  0  0  0  0  0  0  0  0  0
   -4.6376    3.7043   14.0852 C   0  0  0  0  0  0  0  0  0  0  0  0
  1  6  1  0  0  0  0
  2  4  1  0  0  0  0
  3  7  1  0  0  0  0
  4  5  1  0  0  0  0
  6  2  1  0  0  0  0
  7  8  1  0  0  0  0
  8  9  1  0  0  0  0
  9 10  1  0  0  0  0
 10 11  1  0  0  0  0
 10 12  1  0  0  0  0
 11 13  1  0  0  0  0
 13 15  1  0  0  0  0
 14 12  1  0  0  0  0
 15 14  1  0  0  0  0
 16 18  2  0  0  0  0
 16 22  1  0  0  0  0
 17 23  1  0  0  0  0
 17 29  1  0  0  0  0
 18 19  1  0  0  0  0
 18 26  1  0  0  0  0
 19 20  2  0  0  0  0
 20  3  1  0  0  0  0
 20 21  1  0  0  0  0
 21  5  1  0  0  0  0
 21 22  2  0  0  0  0
 23 24  2  0  0  0  0
 24 30  1  0  0  0  0
 25 26  2  0  0  0  0
 25 30  1  0  0  0  0
 26 27  1  0  0  0  0
 27 28  2  0  0  0  0
 28 29  1  0  0  0  0
 29 30  2  0  0  0  0
M  END
>  <CHROM.1>
164.99816309,65.39657677,177.63113157,176.53467031,-69.41037154,170.64030605
64.94952210,-102.17525648,-38.82833837,-121.86194083,-113.93631159,0.41492774
2.61914978,16.77960754,-0.18510599,-0.66661636,0.26991410

>  <Name>
1uts_lig

>  <RI>
0

>  <Rbt.Current_Directory>
/home/itssahil/PROJECTS/Mol_Feturizer/New_Systems/rnas/1uts

>  <Rbt.Executable>
rbdock ($Id: //depot/dev/client3/rdock/2013.1/src/exe/rbdock.cxx#4 $)

>  <Rbt.Library>
libRbt.so (2013.1, Build901 2013/11/27)

>  <Rbt.Parameter_File>
/export/apps/rDock/src/rDock_2013.1_src/data/scripts/dock_solv.prm

>  <Rbt.Receptor>
prm/pocket_docking_2.prm

>  <SCORE>
-22.98

>  <SCORE.INTER>
-17.1038

>  <SCORE.INTER.CONST>
1

>  <SCORE.INTER.POLAR>
0

>  <SCORE.INTER.ROT>
10

>  <SCORE.INTER.SOLV>
9.16844

>  <SCORE.INTER.VDW>
-24.7253

>  <SCORE.INTER.norm>
-0.570126

>  <SCORE.INTRA>
-5.8913

>  <SCORE.INTRA.DIHEDRAL>
-7.16716

>  <SCORE.INTRA.DIHEDRAL.0>
18.0451

>  <SCORE.INTRA.POLAR>
-0.618699

>  <SCORE.INTRA.POLAR.0>
-0.196815

>  <SCORE.INTRA.REPUL>
0

>  <SCORE.INTRA.REPUL.0>
0

>  <SCORE.INTRA.SOLV>
0.472712

>  <SCORE.INTRA.SOLV.lig_0>
-14.7906

>  <SCORE.INTRA.VDW>
-0.440499

>  <SCORE.INTRA.VDW.0>
-0.411701

>  <SCORE.INTRA.norm>
-0.196377

>  <SCORE.RESTR>
0.0150574

>  <SCORE.RESTR.CAVITY>
0.0150574

>  <SCORE.RESTR.norm>
0.000501915

>  <SCORE.SYSTEM>
0

>  <SCORE.SYSTEM.CONST>
0

>  <SCORE.SYSTEM.DIHEDRAL>
0

>  <SCORE.SYSTEM.SOLV>
0

>  <SCORE.SYSTEM.norm>
0

>  <SCORE.heavy>
30

>  <SCORE.norm>
-0.766001

>  <RMSD>
1.126

$$$$
1uts_lig
 OpenBabel11021811413D
libRbt.so/2013.1/901 2013/11/27
 30 33  0  0  0  0  0  0  0  0999 V2000
    4.4800    4.5447   22.4758 N   0  0  0  0  0  0  0  0  0  0  0  0
    3.4812    4.6690   20.2344 C   0  0  0  0  0  0  0  0  0  0  0  0
    2.4464    2.7176   15.8900 C   0  0  0  0  0  0  0  0  0  0  0  0
    2.1904    4.4608   19.4371 C   0  0  0  0  0  0  0  0  0  0  0  0
    2.4409    4.7231   18.0485 O   0  0  0  0  0  0  0  0  0  0  0  0
    3.2296    4.3467   21.7085 C   0  0  0  0  0  0  0  0  0  0  0  0
    3.0170    2.1303   17.1235 N   0  0  0  0  0  0  0  0  0  0  0  0
    4.1449    1.2271   16.7729 C   0  0  0  0  0  0  0  0  0  0  0  0
    4.7451    0.6289   18.0486 C   0  0  0  0  0  0  0  0  0  0  0  0
    3.8071   -0.3667   18.6143 N   0  0  0  0  0  0  0  0  0  0  0  0
    4.1292   -0.5840   20.0541 C   0  0  0  0  0  0  0  0  0  0  0  0
    3.9261   -1.6442   17.8562 C   0  0  0  0  0  0  0  0  0  0  0  0
    3.1593   -1.6205   20.6442 C   0  0  0  0  0  0  0  0  0  0  0  0
    2.9580   -2.6841   18.4486 C   0  0  0  0  0  0  0  0  0  0  0  0
    3.2787   -2.8988   19.8872 N   0  0  0  0  0  0  0  0  0  0  0  0
   -1.0979    5.1287   16.8059 C   0  0  0  0  0  0  0  0  0  0  0  0
   -5.9635    3.6369   12.9256 N   0  0  0  0  0  0  0  0  0  0  0  0
   -1.1308    4.1883   15.7486 C   0  0  0  0  0  0  0  0  0  0  0  0
    0.0213    3.4105   15.4569 C   0  0  0  0  0  0  0  0  0  0  0  0
    1.2069    3.5714   16.2254 C   0  0  0  0  0  0  0  0  0  0  0  0
    1.2431    4.5319   17.2805 C   0  0  0  0  0  0  0  0  0  0  0  0
    0.0857    5.3054   17.5700 C   0  0  0  0  0  0  0  0  0  0  0  0
   -6.8247    3.6654   14.0460 C   0  0  0  0  0  0  0  0  0  0  0  0
   -6.0883    3.7853   15.2464 C   0  0  0  0  0  0  0  0  0  0  0  0
   -3.5651    3.9799   15.6455 C   0  0  0  0  0  0  0  0  0  0  0  0
   -2.3028    4.0363   14.9944 C   0  0  0  0  0  0  0  0  0  0  0  0
   -2.2317    3.9453   13.5770 C   0  0  0  0  0  0  0  0  0  0  0  0
   -3.4212    3.8005   12.8130 C   0  0  0  0  0  0  0  0  0  0  0  0
   -4.6906    3.7581   13.4700 C   0  0  0  0  0  0  0  0  0  0  0  0
   -4.7629    3.8474   14.8722 C   0  0  0  0  0  0  0  0  0  0  0  0
  1  6  1  0  0  0  0
  2  4  1  0  0  0  0
  3  7  1  0  0  0  0
  4  5  1  0  0  0  0
  6  2  1  0  0  0  0
  7  8  1  0  0  0  0
  8  9  1  0  0  0  0
  9 10  1  0  0  0  0
 10 11  1  0  0  0  0
 10 12  1  0  0  0  0
 11 13  1  0  0  0  0
 13 15  1  0  0  0  0
 14 12  1  0  0  0  0
 15 14  1  0  0  0  0
 16 18  2  0  0  0  0
 16 22  1  0  0  0  0
 17 23  1  0  0  0  0
 17 29  1  0  0  0  0
 18 19  1  0  0  0  0
 18 26  1  0  0  0  0
 19 20  2  0  0  0  0
 20  3  1  0  0  0  0
 20 21  1  0  0  0  0
 21  5  1  0  0  0  0
 21 22  2  0  0  0  0
 23 24  2  0  0  0  0
 24 30  1  0  0  0  0
 25 26  2  0  0  0  0
 25 30  1  0  0  0  0
 26 27  1  0  0  0  0
 27 28  2  0  0  0  0
 28 29  1  0  0  0  0
 29 30  2  0  0  0  0
M  END
>  <CHROM.1>
178.42921849,-178.18600763,175.62933599,179.91374420,179.82509753,179.46525240
71.96527033,-159.89521263,-43.98627842,-132.88245305,-120.61979784,0.58242091
2.59540505,17.20425307,-0.18766894,-0.63243944,0.23762109

>  <Name>
1uts_lig

>  <RI>
0

>  <Rbt.Current_Directory>
/home/itssahil/PROJECTS/Mol_Feturizer/New_Systems/rnas/1uts

>  <Rbt.Executable>
rbdock ($Id: //depot/dev/client3/rdock/2013.1/src/exe/rbdock.cxx#4 $)

>  <Rbt.Library>
libRbt.so (2013.1, Build901 2013/11/27)

>  <Rbt.Parameter_File>
/export/apps/rDock/src/rDock_2013.1_src/data/scripts/dock_solv.prm

>  <Rbt.Receptor>
prm/pocket_docking_2.prm

>  <SCORE>
-20.6672

>  <SCORE.INTER>
-14.9266

>  <SCORE.INTER.CONST>
1

>  <SCORE.INTER.POLAR>
0

>  <SCORE.INTER.ROT>
10

>  <SCORE.INTER.SOLV>
8.37635

>  <SCORE.INTER.VDW>
-23.0099

>  <SCORE.INTER.norm>
-0.497554

>  <SCORE.INTRA>
-5.75326

>  <SCORE.INTRA.DIHEDRAL>
-9.97377

>  <SCORE.INTRA.DIHEDRAL.0>
18.0451

>  <SCORE.INTRA.POLAR>
-0.0876753

>  <SCORE.INTRA.POLAR.0>
-0.196815

>  <SCORE.INTRA.REPUL>
0

>  <SCORE.INTRA.REPUL.0>
0

>  <SCORE.INTRA.SOLV>
-0.110565

>  <SCORE.INTRA.SOLV.lig_0>
-14.7906

>  <SCORE.INTRA.VDW>
-0.412998

>  <SCORE.INTRA.VDW.0>
-0.411701

>  <SCORE.INTRA.norm>
-0.191775

>  <SCORE.RESTR>
0.0127243

>  <SCORE.RESTR.CAVITY>
0.0127243

>  <SCORE.RESTR.norm>
0.000424144

>  <SCORE.SYSTEM>
0

>  <SCORE.SYSTEM.CONST>
0

>  <SCORE.SYSTEM.DIHEDRAL>
0

>  <SCORE.SYSTEM.SOLV>
0

>  <SCORE.SYSTEM.norm>
0

>  <SCORE.heavy>
30

>  <SCORE.norm>
-0.688905

>  <RMSD>
1.142

$$$$
1uts_lig
 OpenBabel11021811413D
libRbt.so/2013.1/901 2013/11/27
 30 33  0  0  0  0  0  0  0  0999 V2000
    4.7843    5.5993   21.3906 N   0  0  0  0  0  0  0  0  0  0  0  0
    3.1829    4.2055   20.1536 C   0  0  0  0  0  0  0  0  0  0  0  0
    2.3977    3.6793   15.6757 C   0  0  0  0  0  0  0  0  0  0  0  0
    1.8367    4.2116   19.4235 C   0  0  0  0  0  0  0  0  0  0  0  0
    1.9346    5.0335   18.2511 O   0  0  0  0  0  0  0  0  0  0  0  0
    3.4859    5.6097   20.6796 C   0  0  0  0  0  0  0  0  0  0  0  0
    2.7518    2.4037   16.3386 N   0  0  0  0  0  0  0  0  0  0  0  0
    4.0601    2.5453   17.0309 C   0  0  0  0  0  0  0  0  0  0  0  0
    4.1279    1.5746   18.2136 C   0  0  0  0  0  0  0  0  0  0  0  0
    4.3078    0.1949   17.7086 N   0  0  0  0  0  0  0  0  0  0  0  0
    3.8369   -0.7726   18.7412 C   0  0  0  0  0  0  0  0  0  0  0  0
    5.7474   -0.0344   17.3991 C   0  0  0  0  0  0  0  0  0  0  0  0
    4.0258   -2.2071   18.2217 C   0  0  0  0  0  0  0  0  0  0  0  0
    5.9383   -1.4717   16.8824 C   0  0  0  0  0  0  0  0  0  0  0  0
    5.4656   -2.4373   17.9132 N   0  0  0  0  0  0  0  0  0  0  0  0
   -1.5931    5.0033   16.9147 C   0  0  0  0  0  0  0  0  0  0  0  0
   -5.9818    3.6242   12.4724 N   0  0  0  0  0  0  0  0  0  0  0  0
   -1.4101    4.3722   15.6611 C   0  0  0  0  0  0  0  0  0  0  0  0
   -0.1142    3.9460   15.2656 C   0  0  0  0  0  0  0  0  0  0  0  0
    0.9995    4.1485   16.1262 C   0  0  0  0  0  0  0  0  0  0  0  0
    0.8154    4.7997   17.3828 C   0  0  0  0  0  0  0  0  0  0  0  0
   -0.4846    5.2214   17.7748 C   0  0  0  0  0  0  0  0  0  0  0  0
   -6.9142    3.5069   13.5282 C   0  0  0  0  0  0  0  0  0  0  0  0
   -6.2713    3.6043   14.7831 C   0  0  0  0  0  0  0  0  0  0  0  0
   -3.8056    3.9750   15.3722 C   0  0  0  0  0  0  0  0  0  0  0  0
   -2.5127    4.1774   14.8173 C   0  0  0  0  0  0  0  0  0  0  0  0
   -2.3409    4.1887   13.4057 C   0  0  0  0  0  0  0  0  0  0  0  0
   -3.4609    4.0003   12.5514 C   0  0  0  0  0  0  0  0  0  0  0  0
   -4.7625    3.8108   13.1125 C   0  0  0  0  0  0  0  0  0  0  0  0
   -4.9342    3.7987   14.5089 C   0  0  0  0  0  0  0  0  0  0  0  0
  1  6  1  0  0  0  0
  2  4  1  0  0  0  0
  3  7  1  0  0  0  0
  4  5  1  0  0  0  0
  6  2  1  0  0  0  0
  7  8  1  0  0  0  0
  8  9  1  0  0  0  0
  9 10  1  0  0  0  0
 10 11  1  0  0  0  0
 10 12  1  0  0  0  0
 11 13  1  0  0  0  0
 13 15  1  0  0  0  0
 14 12  1  0  0  0  0
 15 14  1  0  0  0  0
 16 18  2  0  0  0  0
 16 22  1  0  0  0  0
 17 23  1  0  0  0  0
 17 29  1  0  0  0  0
 18 19  1  0  0  0  0
 18 26  1  0  0  0  0
 19 20  2  0  0  0  0
 20  3  1  0  0  0  0
 20 21  1  0  0  0  0
 21  5  1  0  0  0  0
 21 22  2  0  0  0  0
 23 24  2  0  0  0  0
 24 30  1  0  0  0  0
 25 26  2  0  0  0  0
 25 30  1  0  0  0  0
 26 27  1  0  0  0  0
 27 28  2  0  0  0  0
 28 29  1  0  0  0  0
 29 30  2  0  0  0  0
M  END
>  <CHROM.1>
-178.63865931,65.46181806,-125.73286489,165.82690290,179.71807771,152.86483690
73.41840923,-157.44337676,-30.84968853,-101.65283881,-111.07268571,0.71451670
2.94202470,16.69995060,-0.03227754,-0.53435484,0.51175925

>  <Name>
1uts_lig

>  <RI>
0

>  <Rbt.Current_Directory>
/home/itssahil/PROJECTS/Mol_Feturizer/New_Systems/rnas/1uts

>  <Rbt.Executable>
rbdock ($Id: //depot/dev/client3/rdock/2013.1/src/exe/rbdock.cxx#4 $)

>  <Rbt.Library>
libRbt.so (2013.1, Build901 2013/11/27)

>  <Rbt.Parameter_File>
/export/apps/rDock/src/rDock_2013.1_src/data/scripts/dock_solv.prm

>  <Rbt.Receptor>
prm/pocket_docking_2.prm

>  <SCORE>
-22.7842

>  <SCORE.INTER>
-20.8564

>  <SCORE.INTER.CONST>
1

>  <SCORE.INTER.POLAR>
0

>  <SCORE.INTER.ROT>
10

>  <SCORE.INTER.SOLV>
9.98083

>  <SCORE.INTER.VDW>
-27.4979

>  <SCORE.INTER.norm>
-0.695214

>  <SCORE.INTRA>
-1.94542

>  <SCORE.INTRA.DIHEDRAL>
-4.06338

>  <SCORE.INTRA.DIHEDRAL.0>
18.0451

>  <SCORE.INTRA.POLAR>
0.196815

>  <SCORE.INTRA.POLAR.0>
-0.196815

>  <SCORE.INTRA.REPUL>
0

>  <SCORE.INTRA.REPUL.0>
0

>  <SCORE.INTRA.SOLV>
-0.115874

>  <SCORE.INTRA.SOLV.lig_0>
-14.7906

>  <SCORE.INTRA.VDW>
-0.524969

>  <SCORE.INTRA.VDW.0>
-0.411701

>  <SCORE.INTRA.norm>
-0.0648474

>  <SCORE.RESTR>
0.01759

>  <SCORE.RESTR.CAVITY>
0.01759

>  <SCORE.RESTR.norm>
0.000586334

>  <SCORE.SYSTEM>
0

>  <SCORE.SYSTEM.CONST>
0

>  <SCORE.SYSTEM.DIHEDRAL>
0

>  <SCORE.SYSTEM.SOLV>
0

>  <SCORE.SYSTEM.norm>
0

>  <SCORE.heavy>
30

>  <SCORE.norm>
-0.759475

>  <RMSD>
1.188

$$$$
1uts_lig
 OpenBabel11021811413D
libRbt.so/2013.1/901 2013/11/27
 30 33  0  0  0  0  0  0  0  0999 V2000
    4.2306    3.2295   20.8768 N   0  0  0  0  0  0  0  0  0  0  0  0
    3.2866    5.4861   20.6447 C   0  0  0  0  0  0  0  0  0  0  0  0
    2.5626    2.9259   16.3379 C   0  0  0  0  0  0  0  0  0  0  0  0
    2.0954    4.9930   19.8181 C   0  0  0  0  0  0  0  0  0  0  0  0
    2.4457    5.0010   18.4264 O   0  0  0  0  0  0  0  0  0  0  0  0
    4.5006    4.5954   20.3742 C   0  0  0  0  0  0  0  0  0  0  0  0
    2.2487    1.4842   16.4604 N   0  0  0  0  0  0  0  0  0  0  0  0
    3.5017    0.6891   16.3661 C   0  0  0  0  0  0  0  0  0  0  0  0
    3.9066    0.1938   17.7576 C   0  0  0  0  0  0  0  0  0  0  0  0
    3.6366   -1.2578   17.8617 N   0  0  0  0  0  0  0  0  0  0  0  0
    2.2134   -1.4669   18.2546 C   0  0  0  0  0  0  0  0  0  0  0  0
    4.5496   -1.8588   18.8747 C   0  0  0  0  0  0  0  0  0  0  0  0
    1.9302   -2.9737   18.3675 C   0  0  0  0  0  0  0  0  0  0  0  0
    4.2644   -3.3670   18.9914 C   0  0  0  0  0  0  0  0  0  0  0  0
    2.8421   -3.5751   19.3815 N   0  0  0  0  0  0  0  0  0  0  0  0
   -1.0443    5.3190   17.0296 C   0  0  0  0  0  0  0  0  0  0  0  0
   -5.7303    3.6364   13.0090 N   0  0  0  0  0  0  0  0  0  0  0  0
   -1.0231    4.3440   16.0039 C   0  0  0  0  0  0  0  0  0  0  0  0
    0.1490    3.5723   15.7848 C   0  0  0  0  0  0  0  0  0  0  0  0
    1.3004    3.7739   16.5946 C   0  0  0  0  0  0  0  0  0  0  0  0
    1.2824    4.7689   17.6176 C   0  0  0  0  0  0  0  0  0  0  0  0
    0.1052    5.5363   17.8344 C   0  0  0  0  0  0  0  0  0  0  0  0
   -6.6365    3.6886   14.0925 C   0  0  0  0  0  0  0  0  0  0  0  0
   -5.9508    3.8567   15.3169 C   0  0  0  0  0  0  0  0  0  0  0  0
   -3.4484    4.0988   15.8102 C   0  0  0  0  0  0  0  0  0  0  0  0
   -2.1616    4.1519   15.2087 C   0  0  0  0  0  0  0  0  0  0  0  0
   -2.0321    4.0168   13.7990 C   0  0  0  0  0  0  0  0  0  0  0  0
   -3.1878    3.8314   12.9930 C   0  0  0  0  0  0  0  0  0  0  0  0
   -4.4821    3.7924   13.5997 C   0  0  0  0  0  0  0  0  0  0  0  0
   -4.6122    3.9252   14.9943 C   0  0  0  0  0  0  0  0  0  0  0  0
  1  6  1  0  0  0  0
  2  4  1  0  0  0  0
  3  7  1  0  0  0  0
  4  5  1  0  0  0  0
  6  2  1  0  0  0  0
  7  8  1  0  0  0  0
  8  9  1  0  0  0  0
  9 10  1  0  0  0  0
 10 11  1  0  0  0  0
 10 12  1  0  0  0  0
 11 13  1  0  0  0  0
 13 15  1  0  0  0  0
 14 12  1  0  0  0  0
 15 14  1  0  0  0  0
 16 18  2  0  0  0  0
 16 22  1  0  0  0  0
 17 23  1  0  0  0  0
 17 29  1  0  0  0  0
 18 19  1  0  0  0  0
 18 26  1  0  0  0  0
 19 20  2  0  0  0  0
 20  3  1  0  0  0  0
 20 21  1  0  0  0  0
 21  5  1  0  0  0  0
 21 22  2  0  0  0  0
 23 24  2  0  0  0  0
 24 30  1  0  0  0  0
 25 26  2  0  0  0  0
 25 30  1  0  0  0  0
 26 27  1  0  0  0  0
 27 28  2  0  0  0  0
 28 29  1  0  0  0  0
 29 30  2  0  0  0  0
M  END
>  <CHROM.1>
72.26967366,-57.87296442,-173.51966238,-169.97092746,-65.62032091,104.38112890
106.61354302,-85.00519775,-44.05923750,-57.98590238,-129.86427926,0.52574797
2.43666652,17.05564836,-0.35716845,-0.58033161,0.16542199

>  <Name>
1uts_lig

>  <RI>
0

>  <Rbt.Current_Directory>
/home/itssahil/PROJECTS/Mol_Feturizer/New_Systems/rnas/1uts

>  <Rbt.Executable>
rbdock ($Id: //depot/dev/client3/rdock/2013.1/src/exe/rbdock.cxx#4 $)

>  <Rbt.Library>
libRbt.so (2013.1, Build901 2013/11/27)

>  <Rbt.Parameter_File>
/export/apps/rDock/src/rDock_2013.1_src/data/scripts/dock_solv.prm

>  <Rbt.Receptor>
prm/pocket_docking_2.prm

>  <SCORE>
-19.4747

>  <SCORE.INTER>
-20.4792

>  <SCORE.INTER.CONST>
1

>  <SCORE.INTER.POLAR>
-0.78587

>  <SCORE.INTER.ROT>
10

>  <SCORE.INTER.SOLV>
8.389

>  <SCORE.INTER.VDW>
-24.0962

>  <SCORE.INTER.norm>
-0.682641

>  <SCORE.INTRA>
0.954696

>  <SCORE.INTRA.DIHEDRAL>
-1.80009

>  <SCORE.INTRA.DIHEDRAL.0>
18.0451

>  <SCORE.INTRA.POLAR>
0.196815

>  <SCORE.INTRA.POLAR.0>
-0.196815

>  <SCORE.INTRA.REPUL>
0

>  <SCORE.INTRA.REPUL.0>
0

>  <SCORE.INTRA.SOLV>
-0.181589

>  <SCORE.INTRA.SOLV.lig_0>
-14.7906

>  <SCORE.INTRA.VDW>
1.27636

>  <SCORE.INTRA.VDW.0>
-0.411701

>  <SCORE.INTRA.norm>
0.0318232

>  <SCORE.RESTR>
0.0498269

>  <SCORE.RESTR.CAVITY>
0.0498269

>  <SCORE.RESTR.norm>
0.0016609

>  <SCORE.SYSTEM>
0

>  <SCORE.SYSTEM.CONST>
0

>  <SCORE.SYSTEM.DIHEDRAL>
0

>  <SCORE.SYSTEM.SOLV>
0

>  <SCORE.SYSTEM.norm>
0

>  <SCORE.heavy>
30

>  <SCORE.norm>
-0.649157

>  <RMSD>
1.204

$$$$
1uts_lig
 OpenBabel11021811413D
libRbt.so/2013.1/901 2013/11/27
 30 33  0  0  0  0  0  0  0  0999 V2000
    4.6632    5.8733   21.2227 N   0  0  0  0  0  0  0  0  0  0  0  0
    2.7815    4.4553   20.5255 C   0  0  0  0  0  0  0  0  0  0  0  0
    2.1099    2.1923   16.2053 C   0  0  0  0  0  0  0  0  0  0  0  0
    1.5908    4.3551   19.5677 C   0  0  0  0  0  0  0  0  0  0  0  0
    2.0678    4.3472   18.2142 O   0  0  0  0  0  0  0  0  0  0  0  0
    3.5078    5.7830   20.3016 C   0  0  0  0  0  0  0  0  0  0  0  0
    1.5846    0.8081   16.2137 N   0  0  0  0  0  0  0  0  0  0  0  0
    2.7157   -0.1570   16.1997 C   0  0  0  0  0  0  0  0  0  0  0  0
    3.2191   -0.3856   17.6279 C   0  0  0  0  0  0  0  0  0  0  0  0
    4.3310   -1.3624   17.6079 N   0  0  0  0  0  0  0  0  0  0  0  0
    4.5870   -1.8454   18.9953 C   0  0  0  0  0  0  0  0  0  0  0  0
    5.5503   -0.7118   17.0504 C   0  0  0  0  0  0  0  0  0  0  0  0
    5.7441   -2.8575   18.9790 C   0  0  0  0  0  0  0  0  0  0  0  0
    6.7106   -1.7232   17.0370 C   0  0  0  0  0  0  0  0  0  0  0  0
    6.9642   -2.2070   18.4227 N   0  0  0  0  0  0  0  0  0  0  0  0
   -1.1965    5.0586   16.4622 C   0  0  0  0  0  0  0  0  0  0  0  0
   -5.6591    3.7650   12.0480 N   0  0  0  0  0  0  0  0  0  0  0  0
   -1.2058    4.0487   15.4707 C   0  0  0  0  0  0  0  0  0  0  0  0
   -0.1310    3.1233   15.3927 C   0  0  0  0  0  0  0  0  0  0  0  0
    0.9528    3.2063   16.3094 C   0  0  0  0  0  0  0  0  0  0  0  0
    0.9681    4.2356   17.2981 C   0  0  0  0  0  0  0  0  0  0  0  0
   -0.1121    5.1572   17.3733 C   0  0  0  0  0  0  0  0  0  0  0  0
   -6.6356    3.5567   13.0483 C   0  0  0  0  0  0  0  0  0  0  0  0
   -6.0421    3.5012   14.3299 C   0  0  0  0  0  0  0  0  0  0  0  0
   -3.5952    3.7446   15.0492 C   0  0  0  0  0  0  0  0  0  0  0  0
   -2.2771    3.9740   14.5694 C   0  0  0  0  0  0  0  0  0  0  0  0
   -2.0482    4.1345   13.1750 C   0  0  0  0  0  0  0  0  0  0  0  0
   -3.1363    4.0678   12.2633 C   0  0  0  0  0  0  0  0  0  0  0  0
   -4.4631    3.8507   12.7505 C   0  0  0  0  0  0  0  0  0  0  0  0
   -4.6914    3.6911   14.1295 C   0  0  0  0  0  0  0  0  0  0  0  0
  1  6  1  0  0  0  0
  2  4  1  0  0  0  0
  3  7  1  0  0  0  0
  4  5  1  0  0  0  0
  6  2  1  0  0  0  0
  7  8  1  0  0  0  0
  8  9  1  0  0  0  0
  9 10  1  0  0  0  0
 10 11  1  0  0  0  0
 10 12  1  0  0  0  0
 11 13  1  0  0  0  0
 13 15  1  0  0  0  0
 14 12  1  0  0  0  0
 15 14  1  0  0  0  0
 16 18  2  0  0  0  0
 16 22  1  0  0  0  0
 17 23  1  0  0  0  0
 17 29  1  0  0  0  0
 18 19  1  0  0  0  0
 18 26  1  0  0  0  0
 19 20  2  0  0  0  0
 20  3  1  0  0  0  0
 20 21  1  0  0  0  0
 21  5  1  0  0  0  0
 21 22  2  0  0  0  0
 23 24  2  0  0  0  0
 24 30  1  0  0  0  0
 25 26  2  0  0  0  0
 25 30  1  0  0  0  0
 26 27  1  0  0  0  0
 27 28  2  0  0  0  0
 28 29  1  0  0  0  0
 29 30  2  0  0  0  0
M  END
>  <CHROM.1>
-57.76775380,63.11747344,-176.43729878,179.22868070,-179.64555415,84.44928051
179.15295450,-165.70055684,-61.27097755,-52.98467406,-126.21501550,0.83405657
2.44786485,16.58028060,-0.09297462,-0.59147497,0.53143360

>  <Name>
1uts_lig

>  <RI>
0

>  <Rbt.Current_Directory>
/home/itssahil/PROJECTS/Mol_Feturizer/New_Systems/rnas/1uts

>  <Rbt.Executable>
rbdock ($Id: //depot/dev/client3/rdock/2013.1/src/exe/rbdock.cxx#4 $)

>  <Rbt.Library>
libRbt.so (2013.1, Build901 2013/11/27)

>  <Rbt.Parameter_File>
/export/apps/rDock/src/rDock_2013.1_src/data/scripts/dock_solv.prm

>  <Rbt.Receptor>
prm/pocket_docking_3.prm

>  <SCORE>
-24.6296

>  <SCORE.INTER>
-21.7494

>  <SCORE.INTER.CONST>
1

>  <SCORE.INTER.POLAR>
-0.790136

>  <SCORE.INTER.ROT>
10

>  <SCORE.INTER.SOLV>
10.4584

>  <SCORE.INTER.VDW>
-25.6186

>  <SCORE.INTER.norm>
-0.724979

>  <SCORE.INTRA>
-2.88295

>  <SCORE.INTRA.DIHEDRAL>
-8.66808

>  <SCORE.INTRA.DIHEDRAL.0>
18.0451

>  <SCORE.INTRA.POLAR>
0.196815

>  <SCORE.INTRA.POLAR.0>
-0.196815

>  <SCORE.INTRA.REPUL>
0

>  <SCORE.INTRA.REPUL.0>
0

>  <SCORE.INTRA.SOLV>
-0.610774

>  <SCORE.INTRA.SOLV.lig_0>
-14.7906

>  <SCORE.INTRA.VDW>
1.0873

>  <SCORE.INTRA.VDW.0>
-0.411701

>  <SCORE.INTRA.norm>
-0.0960984

>  <SCORE.RESTR>
0.00268731

>  <SCORE.RESTR.CAVITY>
0.00268731

>  <SCORE.RESTR.norm>
8.95771e-05

>  <SCORE.SYSTEM>
0

>  <SCORE.SYSTEM.CONST>
0

>  <SCORE.SYSTEM.DIHEDRAL>
0

>  <SCORE.SYSTEM.SOLV>
0

>  <SCORE.SYSTEM.norm>
0

>  <SCORE.heavy>
30

>  <SCORE.norm>
-0.820987

>  <RMSD>
1.254

$$$$
1uts_lig
 OpenBabel11021811413D
libRbt.so/2013.1/901 2013/11/27
 30 33  0  0  0  0  0  0  0  0999 V2000
    4.7576    4.8839   21.5733 N   0  0  0  0  0  0  0  0  0  0  0  0
    3.8701    5.5512   19.3814 C   0  0  0  0  0  0  0  0  0  0  0  0
    2.5152    2.2695   15.9574 C   0  0  0  0  0  0  0  0  0  0  0  0
    2.6364    5.4948   18.4759 C   0  0  0  0  0  0  0  0  0  0  0  0
    2.2847    4.1244   18.2350 O   0  0  0  0  0  0  0  0  0  0  0  0
    3.5328    4.9429   20.7439 C   0  0  0  0  0  0  0  0  0  0  0  0
    2.1882    0.8522   16.2338 N   0  0  0  0  0  0  0  0  0  0  0  0
    1.9028    0.6773   17.6826 C   0  0  0  0  0  0  0  0  0  0  0  0
    1.4697   -0.7663   17.9544 C   0  0  0  0  0  0  0  0  0  0  0  0
    2.6311   -1.6687   17.7880 N   0  0  0  0  0  0  0  0  0  0  0  0
    2.2293   -3.0594   18.1462 C   0  0  0  0  0  0  0  0  0  0  0  0
    3.7450   -1.2072   18.6639 C   0  0  0  0  0  0  0  0  0  0  0  0
    3.4343   -3.9991   17.9782 C   0  0  0  0  0  0  0  0  0  0  0  0
    4.9509   -2.1497   18.4993 C   0  0  0  0  0  0  0  0  0  0  0  0
    4.5482   -3.5388   18.8549 N   0  0  0  0  0  0  0  0  0  0  0  0
   -1.0238    4.7878   16.5481 C   0  0  0  0  0  0  0  0  0  0  0  0
   -5.3498    3.7718   11.9382 N   0  0  0  0  0  0  0  0  0  0  0  0
   -0.9445    3.9227   15.4307 C   0  0  0  0  0  0  0  0  0  0  0  0
    0.2053    3.1097   15.2450 C   0  0  0  0  0  0  0  0  0  0  0  0
    1.2758    3.1597   16.1797 C   0  0  0  0  0  0  0  0  0  0  0  0
    1.2008    4.0447   17.2969 C   0  0  0  0  0  0  0  0  0  0  0  0
    0.0460    4.8539   17.4794 C   0  0  0  0  0  0  0  0  0  0  0  0
   -6.3479    3.5940   12.9231 C   0  0  0  0  0  0  0  0  0  0  0  0
   -5.7766    3.5215   14.2139 C   0  0  0  0  0  0  0  0  0  0  0  0
   -3.3351    3.6910   14.9717 C   0  0  0  0  0  0  0  0  0  0  0  0
   -2.0032    3.8799   14.5126 C   0  0  0  0  0  0  0  0  0  0  0  0
   -1.7476    4.0322   13.1221 C   0  0  0  0  0  0  0  0  0  0  0  0
   -2.8227    3.9979   12.1933 C   0  0  0  0  0  0  0  0  0  0  0  0
   -4.1630    3.8216   12.6595 C   0  0  0  0  0  0  0  0  0  0  0  0
   -4.4178    3.6701   14.0348 C   0  0  0  0  0  0  0  0  0  0  0  0
  1  6  1  0  0  0  0
  2  4  1  0  0  0  0
  3  7  1  0  0  0  0
  4  5  1  0  0  0  0
  6  2  1  0  0  0  0
  7  8  1  0  0  0  0
  8  9  1  0  0  0  0
  9 10  1  0  0  0  0
 10 11  1  0  0  0  0
 10 12  1  0  0  0  0
 11 13  1  0  0  0  0
 13 15  1  0  0  0  0
 14 12  1  0  0  0  0
 15 14  1  0  0  0  0
 16 18  2  0  0  0  0
 16 22  1  0  0  0  0
 17 23  1  0  0  0  0
 17 29  1  0  0  0  0
 18 19  1  0  0  0  0
 18 26  1  0  0  0  0
 19 20  2  0  0  0  0
 20  3  1  0  0  0  0
 20 21  1  0  0  0  0
 21  5  1  0  0  0  0
 21 22  2  0  0  0  0
 23 24  2  0  0  0  0
 24 30  1  0  0  0  0
 25 26  2  0  0  0  0
 25 30  1  0  0  0  0
 26 27  1  0  0  0  0
 27 28  2  0  0  0  0
 28 29  1  0  0  0  0
 29 30  2  0  0  0  0
M  END
>  <CHROM.1>
174.48778078,-63.60898662,-67.05752019,-175.09166037,174.80470871,176.08460412
70.17622656,176.06404272,-51.09883191,-72.34370809,131.38925223,0.56244325
2.25091371,16.62253975,-0.30472545,-0.66508665,0.18522848

>  <Name>
1uts_lig

>  <RI>
0

>  <Rbt.Current_Directory>
/home/itssahil/PROJECTS/Mol_Feturizer/New_Systems/rnas/1uts

>  <Rbt.Executable>
rbdock ($Id: //depot/dev/client3/rdock/2013.1/src/exe/rbdock.cxx#4 $)

>  <Rbt.Library>
libRbt.so (2013.1, Build901 2013/11/27)

>  <Rbt.Parameter_File>
/export/apps/rDock/src/rDock_2013.1_src/data/scripts/dock_solv.prm

>  <Rbt.Receptor>
prm/pocket_docking_3.prm

>  <SCORE>
-25.1354

>  <SCORE.INTER>
-22.5015

>  <SCORE.INTER.CONST>
1

>  <SCORE.INTER.POLAR>
-0.691043

>  <SCORE.INTER.ROT>
10

>  <SCORE.INTER.SOLV>
9.86034

>  <SCORE.INTER.VDW>
-26.251

>  <SCORE.INTER.norm>
-0.750049

>  <SCORE.INTRA>
-2.63387

>  <SCORE.INTRA.DIHEDRAL>
-10.79

>  <SCORE.INTRA.DIHEDRAL.0>
18.0451

>  <SCORE.INTRA.POLAR>
0.196815

>  <SCORE.INTRA.POLAR.0>
-0.196815

>  <SCORE.INTRA.REPUL>
0

>  <SCORE.INTRA.REPUL.0>
0

>  <SCORE.INTRA.SOLV>
-0.288573

>  <SCORE.INTRA.SOLV.lig_0>
-14.7906

>  <SCORE.INTRA.VDW>
2.23622

>  <SCORE.INTRA.VDW.0>
-0.411701

>  <SCORE.INTRA.norm>
-0.0877957

>  <SCORE.RESTR>
0

>  <SCORE.RESTR.CAVITY>
0

>  <SCORE.RESTR.norm>
0

>  <SCORE.SYSTEM>
0

>  <SCORE.SYSTEM.CONST>
0

>  <SCORE.SYSTEM.DIHEDRAL>
0

>  <SCORE.SYSTEM.SOLV>
0

>  <SCORE.SYSTEM.norm>
0

>  <SCORE.heavy>
30

>  <SCORE.norm>
-0.837845

>  <RMSD>
1.258

$$$$
1uts_lig
 OpenBabel11021811413D
libRbt.so/2013.1/901 2013/11/27
 30 33  0  0  0  0  0  0  0  0999 V2000
    5.3682    6.1051   19.4845 N   0  0  0  0  0  0  0  0  0  0  0  0
    3.0615    6.4363   20.2631 C   0  0  0  0  0  0  0  0  0  0  0  0
    2.3434    3.6087   16.7788 C   0  0  0  0  0  0  0  0  0  0  0  0
    2.0604    6.2479   19.1196 C   0  0  0  0  0  0  0  0  0  0  0  0
    1.4405    4.9588   19.2371 O   0  0  0  0  0  0  0  0  0  0  0  0
    4.2068    5.4338   20.1106 C   0  0  0  0  0  0  0  0  0  0  0  0
    2.3849    2.5184   15.7780 N   0  0  0  0  0  0  0  0  0  0  0  0
    2.4593    1.2050   16.4710 C   0  0  0  0  0  0  0  0  0  0  0  0
    3.9107    0.9047   16.8570 C   0  0  0  0  0  0  0  0  0  0  0  0
    4.0797   -0.5543   17.0410 N   0  0  0  0  0  0  0  0  0  0  0  0
    3.4352   -0.9670   18.3209 C   0  0  0  0  0  0  0  0  0  0  0  0
    5.5327   -0.8849   17.0600 C   0  0  0  0  0  0  0  0  0  0  0  0
    3.6121   -2.4814   18.5174 C   0  0  0  0  0  0  0  0  0  0  0  0
    5.7111   -2.4006   17.2604 C   0  0  0  0  0  0  0  0  0  0  0  0
    5.0651   -2.8125   18.5377 N   0  0  0  0  0  0  0  0  0  0  0  0
   -1.7752    5.0284   17.2657 C   0  0  0  0  0  0  0  0  0  0  0  0
   -5.2887    3.7644   12.0717 N   0  0  0  0  0  0  0  0  0  0  0  0
   -1.3766    4.4005   16.0614 C   0  0  0  0  0  0  0  0  0  0  0  0
   -0.0404    3.9432   15.9101 C   0  0  0  0  0  0  0  0  0  0  0  0
    0.8975    4.1114   16.9655 C   0  0  0  0  0  0  0  0  0  0  0  0
    0.4979    4.7595   18.1727 C   0  0  0  0  0  0  0  0  0  0  0  0
   -0.8419    5.2124   18.3198 C   0  0  0  0  0  0  0  0  0  0  0  0
   -6.3796    3.5138   12.9348 C   0  0  0  0  0  0  0  0  0  0  0  0
   -5.9667    3.5218   14.2864 C   0  0  0  0  0  0  0  0  0  0  0  0
   -3.6620    3.9357   15.3262 C   0  0  0  0  0  0  0  0  0  0  0  0
   -2.3066    4.2395   15.0247 C   0  0  0  0  0  0  0  0  0  0  0  0
   -1.8974    4.3866   13.6707 C   0  0  0  0  0  0  0  0  0  0  0  0
   -2.8430    4.2323   12.6211 C   0  0  0  0  0  0  0  0  0  0  0  0
   -4.2088    3.9404   12.9283 C   0  0  0  0  0  0  0  0  0  0  0  0
   -4.6153    3.7939   14.2672 C   0  0  0  0  0  0  0  0  0  0  0  0
  1  6  1  0  0  0  0
  2  4  1  0  0  0  0
  3  7  1  0  0  0  0
  4  5  1  0  0  0  0
  6  2  1  0  0  0  0
  7  8  1  0  0  0  0
  8  9  1  0  0  0  0
  9 10  1  0  0  0  0
 10 11  1  0  0  0  0
 10 12  1  0  0  0  0
 11 13  1  0  0  0  0
 13 15  1  0  0  0  0
 14 12  1  0  0  0  0
 15 14  1  0  0  0  0
 16 18  2  0  0  0  0
 16 22  1  0  0  0  0
 17 23  1  0  0  0  0
 17 29  1  0  0  0  0
 18 19  1  0  0  0  0
 18 26  1  0  0  0  0
 19 20  2  0  0  0  0
 20  3  1  0  0  0  0
 20 21  1  0  0  0  0
 21  5  1  0  0  0  0
 21 22  2  0  0  0  0
 23 24  2  0  0  0  0
 24 30  1  0  0  0  0
 25 26  2  0  0  0  0
 25 30  1  0  0  0  0
 26 27  1  0  0  0  0
 27 28  2  0  0  0  0
 28 29  1  0  0  0  0
 29 30  2  0  0  0  0
M  END
>  <CHROM.1>
-46.73985537,65.54739594,-100.51851863,-179.92521070,99.17198318,-82.65521362
-157.81839506,-73.76831574,-37.07857102,-24.94704167,92.95742680,0.69982306
2.93801786,16.63850568,-0.15967969,-0.55297144,0.39292101

>  <Name>
1uts_lig

>  <RI>
0

>  <Rbt.Current_Directory>
/home/itssahil/PROJECTS/Mol_Feturizer/New_Systems/rnas/1uts

>  <Rbt.Executable>
rbdock ($Id: //depot/dev/client3/rdock/2013.1/src/exe/rbdock.cxx#4 $)

>  <Rbt.Library>
libRbt.so (2013.1, Build901 2013/11/27)

>  <Rbt.Parameter_File>
/export/apps/rDock/src/rDock_2013.1_src/data/scripts/dock_solv.prm

>  <Rbt.Receptor>
prm/pocket_docking_3.prm

>  <SCORE>
-26.1025

>  <SCORE.INTER>
-29.3343

>  <SCORE.INTER.CONST>
1

>  <SCORE.INTER.POLAR>
-1.31639

>  <SCORE.INTER.ROT>
10

>  <SCORE.INTER.SOLV>
10.7516

>  <SCORE.INTER.VDW>
-29.0187

>  <SCORE.INTER.norm>
-0.977809

>  <SCORE.INTRA>
3.2318

>  <SCORE.INTRA.DIHEDRAL>
-0.19498

>  <SCORE.INTRA.DIHEDRAL.0>
18.0451

>  <SCORE.INTRA.POLAR>
0.196815

>  <SCORE.INTRA.POLAR.0>
-0.196815

>  <SCORE.INTRA.REPUL>
0

>  <SCORE.INTRA.REPUL.0>
0

>  <SCORE.INTRA.SOLV>
-0.517038

>  <SCORE.INTRA.SOLV.lig_0>
-14.7906

>  <SCORE.INTRA.VDW>
2.91864

>  <SCORE.INTRA.VDW.0>
-0.411701

>  <SCORE.INTRA.norm>
0.107727

>  <SCORE.RESTR>
0

>  <SCORE.RESTR.CAVITY>
0

>  <SCORE.RESTR.norm>
0

>  <SCORE.SYSTEM>
0

>  <SCORE.SYSTEM.CONST>
0

>  <SCORE.SYSTEM.DIHEDRAL>
0

>  <SCORE.SYSTEM.SOLV>
0

>  <SCORE.SYSTEM.norm>
0

>  <SCORE.heavy>
30

>  <SCORE.norm>
-0.870082

>  <RMSD>
1.294

$$$$
1uts_lig
 OpenBabel11021811413D
libRbt.so/2013.1/901 2013/11/27
 30 33  0  0  0  0  0  0  0  0999 V2000
    4.0385    1.4411   19.8338 N   0  0  0  0  0  0  0  0  0  0  0  0
    3.0592    3.6296   20.3712 C   0  0  0  0  0  0  0  0  0  0  0  0
    2.2055    2.1024   16.1666 C   0  0  0  0  0  0  0  0  0  0  0  0
    1.8831    3.4996   19.3990 C   0  0  0  0  0  0  0  0  0  0  0  0
    2.1728    4.2340   18.2004 O   0  0  0  0  0  0  0  0  0  0  0  0
    4.2776    2.9017   19.8005 C   0  0  0  0  0  0  0  0  0  0  0  0
    1.8716    0.8653   16.9082 N   0  0  0  0  0  0  0  0  0  0  0  0
    3.0366   -0.0586   16.8915 C   0  0  0  0  0  0  0  0  0  0  0  0
    2.7995   -1.2089   17.8743 C   0  0  0  0  0  0  0  0  0  0  0  0
    3.9269   -2.1647   17.7952 N   0  0  0  0  0  0  0  0  0  0  0  0
    3.5533   -3.4261   18.4974 C   0  0  0  0  0  0  0  0  0  0  0  0
    5.1343   -1.5577   18.4236 C   0  0  0  0  0  0  0  0  0  0  0  0
    4.7235   -4.4200   18.4207 C   0  0  0  0  0  0  0  0  0  0  0  0
    6.3058   -2.5535   18.3508 C   0  0  0  0  0  0  0  0  0  0  0  0
    5.9310   -3.8139   19.0502 N   0  0  0  0  0  0  0  0  0  0  0  0
   -1.0819    4.9883   16.4484 C   0  0  0  0  0  0  0  0  0  0  0  0
   -5.5415    3.7768   12.0079 N   0  0  0  0  0  0  0  0  0  0  0  0
   -1.0954    3.9901   15.4452 C   0  0  0  0  0  0  0  0  0  0  0  0
   -0.0268    3.0583   15.3591 C   0  0  0  0  0  0  0  0  0  0  0  0
    1.0551    3.1232   16.2796 C   0  0  0  0  0  0  0  0  0  0  0  0
    1.0748    4.1407   17.2802 C   0  0  0  0  0  0  0  0  0  0  0  0
    0.0008    5.0687   17.3635 C   0  0  0  0  0  0  0  0  0  0  0  0
   -6.5218    3.5620   13.0031 C   0  0  0  0  0  0  0  0  0  0  0  0
   -5.9321    3.4869   14.2854 C   0  0  0  0  0  0  0  0  0  0  0  0
   -3.4856    3.7061   15.0139 C   0  0  0  0  0  0  0  0  0  0  0  0
   -2.1648    3.9333   14.5403 C   0  0  0  0  0  0  0  0  0  0  0  0
   -1.9313    4.1097   13.1487 C   0  0  0  0  0  0  0  0  0  0  0  0
   -3.0174    4.0612   12.2334 C   0  0  0  0  0  0  0  0  0  0  0  0
   -4.3468    3.8463   12.7145 C   0  0  0  0  0  0  0  0  0  0  0  0
   -4.5797    3.6709   14.0908 C   0  0  0  0  0  0  0  0  0  0  0  0
  1  6  1  0  0  0  0
  2  4  1  0  0  0  0
  3  7  1  0  0  0  0
  4  5  1  0  0  0  0
  6  2  1  0  0  0  0
  7  8  1  0  0  0  0
  8  9  1  0  0  0  0
  9 10  1  0  0  0  0
 10 11  1  0  0  0  0
 10 12  1  0  0  0  0
 11 13  1  0  0  0  0
 13 15  1  0  0  0  0
 14 12  1  0  0  0  0
 15 14  1  0  0  0  0
 16 18  2  0  0  0  0
 16 22  1  0  0  0  0
 17 23  1  0  0  0  0
 17 29  1  0  0  0  0
 18 19  1  0  0  0  0
 18 26  1  0  0  0  0
 19 20  2  0  0  0  0
 20  3  1  0  0  0  0
 20 21  1  0  0  0  0
 21  5  1  0  0  0  0
 21 22  2  0  0  0  0
 23 24  2  0  0  0  0
 24 30  1  0  0  0  0
 25 26  2  0  0  0  0
 25 30  1  0  0  0  0
 26 27  1  0  0  0  0
 27 28  2  0  0  0  0
 28 29  1  0  0  0  0
 29 30  2  0  0  0  0
M  END
>  <CHROM.1>
-176.30244475,-67.53287837,-174.98691576,-179.23750260,-69.95801266,169.10391614
176.77414303,-166.75990237,-61.33136342,-86.06792845,-92.96955270,0.76604061
1.80263571,16.62419408,-0.32273245,-0.64990783,0.32866148

>  <Name>
1uts_lig

>  <RI>
0

>  <Rbt.Current_Directory>
/home/itssahil/PROJECTS/Mol_Feturizer/New_Systems/rnas/1uts

>  <Rbt.Executable>
rbdock ($Id: //depot/dev/client3/rdock/2013.1/src/exe/rbdock.cxx#4 $)

>  <Rbt.Library>
libRbt.so (2013.1, Build901 2013/11/27)

>  <Rbt.Parameter_File>
/export/apps/rDock/src/rDock_2013.1_src/data/scripts/dock_solv.prm

>  <Rbt.Receptor>
prm/pocket_docking_3.prm

>  <SCORE>
-25.8177

>  <SCORE.INTER>
-21.0142

>  <SCORE.INTER.CONST>
1

>  <SCORE.INTER.POLAR>
-0.79617

>  <SCORE.INTER.ROT>
10

>  <SCORE.INTER.SOLV>
9.45293

>  <SCORE.INTER.VDW>
-24.7732

>  <SCORE.INTER.norm>
-0.700472

>  <SCORE.INTRA>
-4.8035

>  <SCORE.INTRA.DIHEDRAL>
-7.47764

>  <SCORE.INTRA.DIHEDRAL.0>
18.0451

>  <SCORE.INTRA.POLAR>
0.196815

>  <SCORE.INTRA.POLAR.0>
-0.196815

>  <SCORE.INTRA.REPUL>
0

>  <SCORE.INTRA.REPUL.0>
0

>  <SCORE.INTRA.SOLV>
0.42225

>  <SCORE.INTRA.SOLV.lig_0>
-14.7906

>  <SCORE.INTRA.VDW>
-1.94498

>  <SCORE.INTRA.VDW.0>
-0.411701

>  <SCORE.INTRA.norm>
-0.160117

>  <SCORE.RESTR>
0

>  <SCORE.RESTR.CAVITY>
0

>  <SCORE.RESTR.norm>
0

>  <SCORE.SYSTEM>
0

>  <SCORE.SYSTEM.CONST>
0

>  <SCORE.SYSTEM.DIHEDRAL>
0

>  <SCORE.SYSTEM.SOLV>
0

>  <SCORE.SYSTEM.norm>
0

>  <SCORE.heavy>
30

>  <SCORE.norm>
-0.860589

>  <RMSD>
1.312

$$$$
1uts_lig
 OpenBabel11021811413D
libRbt.so/2013.1/901 2013/11/27
 30 33  0  0  0  0  0  0  0  0999 V2000
    2.1187    5.9840   21.8446 N   0  0  0  0  0  0  0  0  0  0  0  0
    3.2626    4.7106   20.0818 C   0  0  0  0  0  0  0  0  0  0  0  0
    2.1925    2.6487   15.7827 C   0  0  0  0  0  0  0  0  0  0  0  0
    1.9719    4.4798   19.2906 C   0  0  0  0  0  0  0  0  0  0  0  0
    2.2225    4.7025   17.8951 O   0  0  0  0  0  0  0  0  0  0  0  0
    2.9409    4.7827   21.5757 C   0  0  0  0  0  0  0  0  0  0  0  0
    2.4268    1.6745   16.8727 N   0  0  0  0  0  0  0  0  0  0  0  0
    2.5972    0.3131   16.2995 C   0  0  0  0  0  0  0  0  0  0  0  0
    2.8151   -0.7000   17.4272 C   0  0  0  0  0  0  0  0  0  0  0  0
    4.1569   -0.4977   18.0186 N   0  0  0  0  0  0  0  0  0  0  0  0
    5.1725   -1.2089   17.1900 C   0  0  0  0  0  0  0  0  0  0  0  0
    4.1657   -1.0205   19.4142 C   0  0  0  0  0  0  0  0  0  0  0  0
    6.5671   -1.0042   17.8035 C   0  0  0  0  0  0  0  0  0  0  0  0
    5.5629   -0.8194   20.0282 C   0  0  0  0  0  0  0  0  0  0  0  0
    6.5769   -1.5280   19.1988 N   0  0  0  0  0  0  0  0  0  0  0  0
   -1.3142    5.1303   16.6541 C   0  0  0  0  0  0  0  0  0  0  0  0
   -6.2136    3.6047   12.8272 N   0  0  0  0  0  0  0  0  0  0  0  0
   -1.3639    4.1667   15.6186 C   0  0  0  0  0  0  0  0  0  0  0  0
   -0.2239    3.3662   15.3411 C   0  0  0  0  0  0  0  0  0  0  0  0
    0.9663    3.5275   16.1023 C   0  0  0  0  0  0  0  0  0  0  0  0
    1.0196    4.5110   17.1352 C   0  0  0  0  0  0  0  0  0  0  0  0
   -0.1257    5.3073   17.4105 C   0  0  0  0  0  0  0  0  0  0  0  0
   -7.0633    3.5781   13.9564 C   0  0  0  0  0  0  0  0  0  0  0  0
   -6.3169    3.6744   15.1527 C   0  0  0  0  0  0  0  0  0  0  0  0
   -3.7942    3.9098   15.5329 C   0  0  0  0  0  0  0  0  0  0  0  0
   -2.5404    4.0144   14.8714 C   0  0  0  0  0  0  0  0  0  0  0  0
   -2.4825    3.9714   13.4512 C   0  0  0  0  0  0  0  0  0  0  0  0
   -3.6767    3.8262   12.6947 C   0  0  0  0  0  0  0  0  0  0  0  0
   -4.9379    3.7352   13.3626 C   0  0  0  0  0  0  0  0  0  0  0  0
   -4.9971    3.7771   14.7676 C   0  0  0  0  0  0  0  0  0  0  0  0
  1  6  1  0  0  0  0
  2  4  1  0  0  0  0
  3  7  1  0  0  0  0
  4  5  1  0  0  0  0
  6  2  1  0  0  0  0
  7  8  1  0  0  0  0
  8  9  1  0  0  0  0
  9 10  1  0  0  0  0
 10 11  1  0  0  0  0
 10 12  1  0  0  0  0
 11 13  1  0  0  0  0
 13 15  1  0  0  0  0
 14 12  1  0  0  0  0
 15 14  1  0  0  0  0
 16 18  2  0  0  0  0
 16 22  1  0  0  0  0
 17 23  1  0  0  0  0
 17 29  1  0  0  0  0
 18 19  1  0  0  0  0
 18 26  1  0  0  0  0
 19 20  2  0  0  0  0
 20  3  1  0  0  0  0
 20 21  1  0  0  0  0
 21  5  1  0  0  0  0
 21 22  2  0  0  0  0
 23 24  2  0  0  0  0
 24 30  1  0  0  0  0
 25 26  2  0  0  0  0
 25 30  1  0  0  0  0
 26 27  1  0  0  0  0
 27 28  2  0  0  0  0
 28 29  1  0  0  0  0
 29 30  2  0  0  0  0
M  END
>  <CHROM.1>
65.13201190,167.49218606,130.69217892,-179.13247342,-65.89029341,-179.01330121
-71.07953302,-83.11847699,-47.78219929,-110.13170474,-120.81654989,0.58275317
2.69641353,16.91443456,-0.00330501,-0.56434931,0.63212128

>  <Name>
1uts_lig

>  <RI>
0

>  <Rbt.Current_Directory>
/home/itssahil/PROJECTS/Mol_Feturizer/New_Systems/rnas/1uts

>  <Rbt.Executable>
rbdock ($Id: //depot/dev/client3/rdock/2013.1/src/exe/rbdock.cxx#4 $)

>  <Rbt.Library>
libRbt.so (2013.1, Build901 2013/11/27)

>  <Rbt.Parameter_File>
/export/apps/rDock/src/rDock_2013.1_src/data/scripts/dock_solv.prm

>  <Rbt.Receptor>
prm/pocket_docking_2.prm

>  <SCORE>
-17.6043

>  <SCORE.INTER>
-15.7695

>  <SCORE.INTER.CONST>
1

>  <SCORE.INTER.POLAR>
0

>  <SCORE.INTER.ROT>
10

>  <SCORE.INTER.SOLV>
9.13403

>  <SCORE.INTER.VDW>
-23.8244

>  <SCORE.INTER.norm>
-0.525651

>  <SCORE.INTRA>
-2.08285

>  <SCORE.INTRA.DIHEDRAL>
-5.38733

>  <SCORE.INTRA.DIHEDRAL.0>
18.0451

>  <SCORE.INTRA.POLAR>
0.196815

>  <SCORE.INTRA.POLAR.0>
-0.196815

>  <SCORE.INTRA.REPUL>
0

>  <SCORE.INTRA.REPUL.0>
0

>  <SCORE.INTRA.SOLV>
-0.107419

>  <SCORE.INTRA.SOLV.lig_0>
-14.7906

>  <SCORE.INTRA.VDW>
-0.00464196

>  <SCORE.INTRA.VDW.0>
-0.411701

>  <SCORE.INTRA.norm>
-0.0694282

>  <SCORE.RESTR>
0.24806

>  <SCORE.RESTR.CAVITY>
0.24806

>  <SCORE.RESTR.norm>
0.00826867

>  <SCORE.SYSTEM>
0

>  <SCORE.SYSTEM.CONST>
0

>  <SCORE.SYSTEM.DIHEDRAL>
0

>  <SCORE.SYSTEM.SOLV>
0

>  <SCORE.SYSTEM.norm>
0

>  <SCORE.heavy>
30

>  <SCORE.norm>
-0.586811

>  <RMSD>
1.317

$$$$
1uts_lig
 OpenBabel11021811413D
libRbt.so/2013.1/901 2013/11/27
 30 33  0  0  0  0  0  0  0  0999 V2000
    4.0412    3.7061   20.0371 N   0  0  0  0  0  0  0  0  0  0  0  0
    3.1670    6.0007   19.9476 C   0  0  0  0  0  0  0  0  0  0  0  0
    2.5638    3.8263   15.8872 C   0  0  0  0  0  0  0  0  0  0  0  0
    2.1694    5.8702   18.7931 C   0  0  0  0  0  0  0  0  0  0  0  0
    1.7850    4.4950   18.6490 O   0  0  0  0  0  0  0  0  0  0  0  0
    4.3772    5.1034   19.6818 C   0  0  0  0  0  0  0  0  0  0  0  0
    3.1962    2.7977   16.7440 N   0  0  0  0  0  0  0  0  0  0  0  0
    2.6310    1.4607   16.4216 C   0  0  0  0  0  0  0  0  0  0  0  0
    2.7813    0.5302   17.6287 C   0  0  0  0  0  0  0  0  0  0  0  0
    4.2174    0.2671   17.8720 N   0  0  0  0  0  0  0  0  0  0  0  0
    4.7263   -0.6805   16.8391 C   0  0  0  0  0  0  0  0  0  0  0  0
    4.3903   -0.3083   19.2358 C   0  0  0  0  0  0  0  0  0  0  0  0
    6.2170   -0.9592   17.0909 C   0  0  0  0  0  0  0  0  0  0  0  0
    5.8822   -0.5913   19.4877 C   0  0  0  0  0  0  0  0  0  0  0  0
    6.3903   -1.5358   18.4543 N   0  0  0  0  0  0  0  0  0  0  0  0
   -1.6224    4.4450   17.0307 C   0  0  0  0  0  0  0  0  0  0  0  0
   -5.5327    3.7719   12.0179 N   0  0  0  0  0  0  0  0  0  0  0  0
   -1.2885    4.1428   15.6889 C   0  0  0  0  0  0  0  0  0  0  0  0
    0.0700    3.9439   15.3251 C   0  0  0  0  0  0  0  0  0  0  0  0
    1.0955    4.0444   16.3050 C   0  0  0  0  0  0  0  0  0  0  0  0
    0.7581    4.3654   17.6541 C   0  0  0  0  0  0  0  0  0  0  0  0
   -0.6038    4.5603   18.0132 C   0  0  0  0  0  0  0  0  0  0  0  0
   -6.5617    3.5530   12.9617 C   0  0  0  0  0  0  0  0  0  0  0  0
   -6.0421    3.5131   14.2755 C   0  0  0  0  0  0  0  0  0  0  0  0
   -3.6447    3.7988   15.1328 C   0  0  0  0  0  0  0  0  0  0  0  0
   -2.3049    4.0468   14.7281 C   0  0  0  0  0  0  0  0  0  0  0  0
   -1.9987    4.2041   13.3483 C   0  0  0  0  0  0  0  0  0  0  0  0
   -3.0314    4.1157   12.3760 C   0  0  0  0  0  0  0  0  0  0  0  0
   -4.3806    3.8800   12.7874 C   0  0  0  0  0  0  0  0  0  0  0  0
   -4.6852    3.7235   14.1520 C   0  0  0  0  0  0  0  0  0  0  0  0
  1  6  1  0  0  0  0
  2  4  1  0  0  0  0
  3  7  1  0  0  0  0
  4  5  1  0  0  0  0
  6  2  1  0  0  0  0
  7  8  1  0  0  0  0
  8  9  1  0  0  0  0
  9 10  1  0  0  0  0
 10 11  1  0  0  0  0
 10 12  1  0  0  0  0
 11 13  1  0  0  0  0
 13 15  1  0  0  0  0
 14 12  1  0  0  0  0
 15 14  1  0  0  0  0
 16 18  2  0  0  0  0
 16 22  1  0  0  0  0
 17 23  1  0  0  0  0
 17 29  1  0  0  0  0
 18 19  1  0  0  0  0
 18 26  1  0  0  0  0
 19 20  2  0  0  0  0
 20  3  1  0  0  0  0
 20 21  1  0  0  0  0
 21  5  1  0  0  0  0
 21 22  2  0  0  0  0
 23 24  2  0  0  0  0
 24 30  1  0  0  0  0
 25 26  2  0  0  0  0
 25 30  1  0  0  0  0
 26 27  1  0  0  0  0
 27 28  2  0  0  0  0
 28 29  1  0  0  0  0
 29 30  2  0  0  0  0
M  END
>  <CHROM.1>
166.97568269,57.43353499,70.59155944,174.71123081,-79.72977950,-155.49173845
-66.26752014,-74.60838336,-21.29433002,-126.59173603,95.04299168,0.83485769
2.93530146,16.59596946,-0.00902472,-0.55786950,0.52548275

>  <Name>
1uts_lig

>  <RI>
0

>  <Rbt.Current_Directory>
/home/itssahil/PROJECTS/Mol_Feturizer/New_Systems/rnas/1uts

>  <Rbt.Executable>
rbdock ($Id: //depot/dev/client3/rdock/2013.1/src/exe/rbdock.cxx#4 $)

>  <Rbt.Library>
libRbt.so (2013.1, Build901 2013/11/27)

>  <Rbt.Parameter_File>
/export/apps/rDock/src/rDock_2013.1_src/data/scripts/dock_solv.prm

>  <Rbt.Receptor>
prm/pocket_docking_2.prm

>  <SCORE>
-26.6231

>  <SCORE.INTER>
-18.8489

>  <SCORE.INTER.CONST>
1

>  <SCORE.INTER.POLAR>
0

>  <SCORE.INTER.ROT>
10

>  <SCORE.INTER.SOLV>
9.59564

>  <SCORE.INTER.VDW>
-26.0311

>  <SCORE.INTER.norm>
-0.628295

>  <SCORE.INTRA>
-7.78008

>  <SCORE.INTRA.DIHEDRAL>
-7.76446

>  <SCORE.INTRA.DIHEDRAL.0>
18.0451

>  <SCORE.INTRA.POLAR>
-1.08661

>  <SCORE.INTRA.POLAR.0>
-0.196815

>  <SCORE.INTRA.REPUL>
0.00287423

>  <SCORE.INTRA.REPUL.0>
0

>  <SCORE.INTRA.SOLV>
0.917837

>  <SCORE.INTRA.SOLV.lig_0>
-14.7906

>  <SCORE.INTRA.VDW>
-0.676668

>  <SCORE.INTRA.VDW.0>
-0.411701

>  <SCORE.INTRA.norm>
-0.259336

>  <SCORE.RESTR>
0.00585914

>  <SCORE.RESTR.CAVITY>
0.00585914

>  <SCORE.RESTR.norm>
0.000195305

>  <SCORE.SYSTEM>
0

>  <SCORE.SYSTEM.CONST>
0

>  <SCORE.SYSTEM.DIHEDRAL>
0

>  <SCORE.SYSTEM.SOLV>
0

>  <SCORE.SYSTEM.norm>
0

>  <SCORE.heavy>
30

>  <SCORE.norm>
-0.887436

>  <RMSD>
1.318

$$$$
1uts_lig
 OpenBabel11021811413D
libRbt.so/2013.1/901 2013/11/27
 30 33  0  0  0  0  0  0  0  0999 V2000
    5.0041    6.5978   19.7995 N   0  0  0  0  0  0  0  0  0  0  0  0
    3.0345    5.1698   20.1446 C   0  0  0  0  0  0  0  0  0  0  0  0
    2.1135    2.6625   15.8354 C   0  0  0  0  0  0  0  0  0  0  0  0
    1.7887    4.7585   19.3546 C   0  0  0  0  0  0  0  0  0  0  0  0
    2.1069    4.7080   17.9560 O   0  0  0  0  0  0  0  0  0  0  0  0
    3.5338    6.5259   19.6426 C   0  0  0  0  0  0  0  0  0  0  0  0
    2.5177    1.8997   17.0383 N   0  0  0  0  0  0  0  0  0  0  0  0
    3.1879    0.6371   16.6289 C   0  0  0  0  0  0  0  0  0  0  0  0
    3.3201   -0.2944   17.8373 C   0  0  0  0  0  0  0  0  0  0  0  0
    4.0667   -1.5101   17.4428 N   0  0  0  0  0  0  0  0  0  0  0  0
    3.7980   -2.5950   18.4301 C   0  0  0  0  0  0  0  0  0  0  0  0
    5.5237   -1.2010   17.3935 C   0  0  0  0  0  0  0  0  0  0  0  0
    4.5749   -3.8583   18.0257 C   0  0  0  0  0  0  0  0  0  0  0  0
    6.3031   -2.4663   16.9923 C   0  0  0  0  0  0  0  0  0  0  0  0
    6.0324   -3.5501   17.9774 N   0  0  0  0  0  0  0  0  0  0  0  0
   -1.4151    5.1254   16.6704 C   0  0  0  0  0  0  0  0  0  0  0  0
   -6.2573    3.5964   12.7732 N   0  0  0  0  0  0  0  0  0  0  0  0
   -1.4471    4.1657   15.6306 C   0  0  0  0  0  0  0  0  0  0  0  0
   -0.3000    3.3712   15.3651 C   0  0  0  0  0  0  0  0  0  0  0  0
    0.8794    3.5347   16.1424 C   0  0  0  0  0  0  0  0  0  0  0  0
    0.9149    4.5144   17.1797 C   0  0  0  0  0  0  0  0  0  0  0  0
   -0.2374    5.3046   17.4430 C   0  0  0  0  0  0  0  0  0  0  0  0
   -7.1231    3.5771   13.8903 C   0  0  0  0  0  0  0  0  0  0  0  0
   -6.3937    3.6786   15.0966 C   0  0  0  0  0  0  0  0  0  0  0  0
   -3.8763    3.9121   15.5116 C   0  0  0  0  0  0  0  0  0  0  0  0
   -2.6130    4.0113   14.8676 C   0  0  0  0  0  0  0  0  0  0  0  0
   -2.5348    3.9606   13.4486 C   0  0  0  0  0  0  0  0  0  0  0  0
   -3.7184    3.8133   12.6758 C   0  0  0  0  0  0  0  0  0  0  0  0
   -4.9891    3.7278   13.3261 C   0  0  0  0  0  0  0  0  0  0  0  0
   -5.0684    3.7771   14.7299 C   0  0  0  0  0  0  0  0  0  0  0  0
  1  6  1  0  0  0  0
  2  4  1  0  0  0  0
  3  7  1  0  0  0  0
  4  5  1  0  0  0  0
  6  2  1  0  0  0  0
  7  8  1  0  0  0  0
  8  9  1  0  0  0  0
  9 10  1  0  0  0  0
 10 11  1  0  0  0  0
 10 12  1  0  0  0  0
 11 13  1  0  0  0  0
 13 15  1  0  0  0  0
 14 12  1  0  0  0  0
 15 14  1  0  0  0  0
 16 18  2  0  0  0  0
 16 22  1  0  0  0  0
 17 23  1  0  0  0  0
 17 29  1  0  0  0  0
 18 19  1  0  0  0  0
 18 26  1  0  0  0  0
 19 20  2  0  0  0  0
 20  3  1  0  0  0  0
 20 21  1  0  0  0  0
 21  5  1  0  0  0  0
 21 22  2  0  0  0  0
 23 24  2  0  0  0  0
 24 30  1  0  0  0  0
 25 26  2  0  0  0  0
 25 30  1  0  0  0  0
 26 27  1  0  0  0  0
 27 28  2  0  0  0  0
 28 29  1  0  0  0  0
 29 30  2  0  0  0  0
M  END
>  <CHROM.1>
-75.72960578,57.94409504,151.88452835,-171.70470882,-149.32818495,-167.20011468
-176.29903071,-160.56886105,-47.15263098,-122.63748260,-132.94316469,0.64235313
2.51306611,16.60672376,-0.30437656,-0.49138961,0.30695265

>  <Name>
1uts_lig

>  <RI>
0

>  <Rbt.Current_Directory>
/home/itssahil/PROJECTS/Mol_Feturizer/New_Systems/rnas/1uts

>  <Rbt.Executable>
rbdock ($Id: //depot/dev/client3/rdock/2013.1/src/exe/rbdock.cxx#4 $)

>  <Rbt.Library>
libRbt.so (2013.1, Build901 2013/11/27)

>  <Rbt.Parameter_File>
/export/apps/rDock/src/rDock_2013.1_src/data/scripts/dock_solv.prm

>  <Rbt.Receptor>
prm/pocket_docking_3.prm

>  <SCORE>
-28.3851

>  <SCORE.INTER>
-27.1347

>  <SCORE.INTER.CONST>
1

>  <SCORE.INTER.POLAR>
-1.38758

>  <SCORE.INTER.ROT>
10

>  <SCORE.INTER.SOLV>
9.97246

>  <SCORE.INTER.VDW>
-27.0554

>  <SCORE.INTER.norm>
-0.904491

>  <SCORE.INTRA>
-1.25177

>  <SCORE.INTRA.DIHEDRAL>
-5.4795

>  <SCORE.INTRA.DIHEDRAL.0>
18.0451

>  <SCORE.INTRA.POLAR>
0.196815

>  <SCORE.INTRA.POLAR.0>
-0.196815

>  <SCORE.INTRA.REPUL>
0

>  <SCORE.INTRA.REPUL.0>
0

>  <SCORE.INTRA.SOLV>
-0.301378

>  <SCORE.INTRA.SOLV.lig_0>
-14.7906

>  <SCORE.INTRA.VDW>
0.969497

>  <SCORE.INTRA.VDW.0>
-0.411701

>  <SCORE.INTRA.norm>
-0.0417257

>  <SCORE.RESTR>
0.00139814

>  <SCORE.RESTR.CAVITY>
0.00139814

>  <SCORE.RESTR.norm>
4.66048e-05

>  <SCORE.SYSTEM>
0

>  <SCORE.SYSTEM.CONST>
0

>  <SCORE.SYSTEM.DIHEDRAL>
0

>  <SCORE.SYSTEM.SOLV>
0

>  <SCORE.SYSTEM.norm>
0

>  <SCORE.heavy>
30

>  <SCORE.norm>
-0.94617

>  <RMSD>
1.333

$$$$
1uts_lig
 OpenBabel11021811413D
libRbt.so/2013.1/901 2013/11/27
 30 33  0  0  0  0  0  0  0  0999 V2000
    5.5350    5.2509   20.5523 N   0  0  0  0  0  0  0  0  0  0  0  0
    3.1843    4.5386   20.6157 C   0  0  0  0  0  0  0  0  0  0  0  0
    2.3038    4.4783   16.3950 C   0  0  0  0  0  0  0  0  0  0  0  0
    1.9567    4.2309   19.7534 C   0  0  0  0  0  0  0  0  0  0  0  0
    1.5378    5.4257   19.0777 O   0  0  0  0  0  0  0  0  0  0  0  0
    4.3442    4.9732   19.7179 C   0  0  0  0  0  0  0  0  0  0  0  0
    2.5149    3.1149   15.8579 N   0  0  0  0  0  0  0  0  0  0  0  0
    2.6376    2.1477   16.9807 C   0  0  0  0  0  0  0  0  0  0  0  0
    2.4418    0.7212   16.4591 C   0  0  0  0  0  0  0  0  0  0  0  0
    2.9728   -0.2425   17.4492 N   0  0  0  0  0  0  0  0  0  0  0  0
    4.3818   -0.5826   17.0986 C   0  0  0  0  0  0  0  0  0  0  0  0
    2.1261   -1.4689   17.4483 C   0  0  0  0  0  0  0  0  0  0  0  0
    4.9355   -1.5864   18.1227 C   0  0  0  0  0  0  0  0  0  0  0  0
    2.6818   -2.4765   18.4708 C   0  0  0  0  0  0  0  0  0  0  0  0
    4.0898   -2.8138   18.1214 N   0  0  0  0  0  0  0  0  0  0  0  0
   -1.8895    5.0061   17.5581 C   0  0  0  0  0  0  0  0  0  0  0  0
   -5.8448    3.5681   12.7462 N   0  0  0  0  0  0  0  0  0  0  0  0
   -1.5630    4.5659   16.2531 C   0  0  0  0  0  0  0  0  0  0  0  0
   -0.2022    4.3974   15.8826 C   0  0  0  0  0  0  0  0  0  0  0  0
    0.8332    4.6665   16.8193 C   0  0  0  0  0  0  0  0  0  0  0  0
    0.5023    5.1259   18.1295 C   0  0  0  0  0  0  0  0  0  0  0  0
   -0.8617    5.2898   18.4957 C   0  0  0  0  0  0  0  0  0  0  0  0
   -6.8692    3.5563   13.7199 C   0  0  0  0  0  0  0  0  0  0  0  0
   -6.3390    3.7630   15.0136 C   0  0  0  0  0  0  0  0  0  0  0  0
   -3.9296    4.1648   15.7866 C   0  0  0  0  0  0  0  0  0  0  0  0
   -2.5892    4.3040   15.3345 C   0  0  0  0  0  0  0  0  0  0  0  0
   -2.2924    4.1841   13.9490 C   0  0  0  0  0  0  0  0  0  0  0  0
   -3.3349    3.9278   13.0178 C   0  0  0  0  0  0  0  0  0  0  0  0
   -4.6843    3.8020   13.4741 C   0  0  0  0  0  0  0  0  0  0  0  0
   -4.9798    3.9197   14.8445 C   0  0  0  0  0  0  0  0  0  0  0  0
  1  6  1  0  0  0  0
  2  4  1  0  0  0  0
  3  7  1  0  0  0  0
  4  5  1  0  0  0  0
  6  2  1  0  0  0  0
  7  8  1  0  0  0  0
  8  9  1  0  0  0  0
  9 10  1  0  0  0  0
 10 11  1  0  0  0  0
 10 12  1  0  0  0  0
 11 13  1  0  0  0  0
 13 15  1  0  0  0  0
 14 12  1  0  0  0  0
 15 14  1  0  0  0  0
 16 18  2  0  0  0  0
 16 22  1  0  0  0  0
 17 23  1  0  0  0  0
 17 29  1  0  0  0  0
 18 19  1  0  0  0  0
 18 26  1  0  0  0  0
 19 20  2  0  0  0  0
 20  3  1  0  0  0  0
 20 21  1  0  0  0  0
 21  5  1  0  0  0  0
 21 22  2  0  0  0  0
 23 24  2  0  0  0  0
 24 30  1  0  0  0  0
 25 26  2  0  0  0  0
 25 30  1  0  0  0  0
 26 27  1  0  0  0  0
 27 28  2  0  0  0  0
 28 29  1  0  0  0  0
 29 30  2  0  0  0  0
M  END
>  <CHROM.1>
-177.78820623,-63.08701561,-79.09115546,172.35809106,-179.17936208,163.41437394
162.33317550,-93.98197272,-15.14088019,-54.02728476,-84.36071612,0.32257038
2.92396595,16.85675131,-0.14934455,-0.52623881,0.32440929

>  <Name>
1uts_lig

>  <RI>
0

>  <Rbt.Current_Directory>
/home/itssahil/PROJECTS/Mol_Feturizer/New_Systems/rnas/1uts

>  <Rbt.Executable>
rbdock ($Id: //depot/dev/client3/rdock/2013.1/src/exe/rbdock.cxx#4 $)

>  <Rbt.Library>
libRbt.so (2013.1, Build901 2013/11/27)

>  <Rbt.Parameter_File>
/export/apps/rDock/src/rDock_2013.1_src/data/scripts/dock_solv.prm

>  <Rbt.Receptor>
prm/pocket_docking_2.prm

>  <SCORE>
-27.9707

>  <SCORE.INTER>
-25.5003

>  <SCORE.INTER.CONST>
1

>  <SCORE.INTER.POLAR>
-0.672553

>  <SCORE.INTER.ROT>
10

>  <SCORE.INTER.SOLV>
9.64605

>  <SCORE.INTER.VDW>
-28.2404

>  <SCORE.INTER.norm>
-0.850011

>  <SCORE.INTRA>
-2.47032

>  <SCORE.INTRA.DIHEDRAL>
-7.1157

>  <SCORE.INTRA.DIHEDRAL.0>
18.0451

>  <SCORE.INTRA.POLAR>
0.196815

>  <SCORE.INTRA.POLAR.0>
-0.196815

>  <SCORE.INTRA.REPUL>
0

>  <SCORE.INTRA.REPUL.0>
0

>  <SCORE.INTRA.SOLV>
-0.5094

>  <SCORE.INTRA.SOLV.lig_0>
-14.7906

>  <SCORE.INTRA.VDW>
0.67306

>  <SCORE.INTRA.VDW.0>
-0.411701

>  <SCORE.INTRA.norm>
-0.0823439

>  <SCORE.RESTR>
0

>  <SCORE.RESTR.CAVITY>
0

>  <SCORE.RESTR.norm>
0

>  <SCORE.SYSTEM>
0

>  <SCORE.SYSTEM.CONST>
0

>  <SCORE.SYSTEM.DIHEDRAL>
0

>  <SCORE.SYSTEM.SOLV>
0

>  <SCORE.SYSTEM.norm>
0

>  <SCORE.heavy>
30

>  <SCORE.norm>
-0.932355

>  <RMSD>
1.357

$$$$
1uts_lig
 OpenBabel11021811413D
libRbt.so/2013.1/901 2013/11/27
 30 33  0  0  0  0  0  0  0  0999 V2000
    1.6968    4.2578   22.6012 N   0  0  0  0  0  0  0  0  0  0  0  0
    3.0552    4.7911   20.6244 C   0  0  0  0  0  0  0  0  0  0  0  0
    2.7109    3.8565   15.8916 C   0  0  0  0  0  0  0  0  0  0  0  0
    1.9083    4.4914   19.6548 C   0  0  0  0  0  0  0  0  0  0  0  0
    2.1138    5.2190   18.4349 O   0  0  0  0  0  0  0  0  0  0  0  0
    2.9269    3.8984   21.8601 C   0  0  0  0  0  0  0  0  0  0  0  0
    2.8623    2.4002   16.1116 N   0  0  0  0  0  0  0  0  0  0  0  0
    2.5689    2.0752   17.5326 C   0  0  0  0  0  0  0  0  0  0  0  0
    2.1896    0.5967   17.6579 C   0  0  0  0  0  0  0  0  0  0  0  0
    3.3979   -0.1966   17.9766 N   0  0  0  0  0  0  0  0  0  0  0  0
    4.2457   -0.3144   16.7554 C   0  0  0  0  0  0  0  0  0  0  0  0
    2.9900   -1.5464   18.4587 C   0  0  0  0  0  0  0  0  0  0  0  0
    5.5001   -1.1411   17.0816 C   0  0  0  0  0  0  0  0  0  0  0  0
    4.2453   -2.3764   18.7822 C   0  0  0  0  0  0  0  0  0  0  0  0
    5.0927   -2.4916   17.5628 N   0  0  0  0  0  0  0  0  0  0  0  0
   -1.3475    5.1419   16.9365 C   0  0  0  0  0  0  0  0  0  0  0  0
   -5.5092    3.6804   12.3053 N   0  0  0  0  0  0  0  0  0  0  0  0
   -1.0995    4.5063   15.6964 C   0  0  0  0  0  0  0  0  0  0  0  0
    0.2180    4.0928   15.3639 C   0  0  0  0  0  0  0  0  0  0  0  0
    1.2882    4.3123   16.2740 C   0  0  0  0  0  0  0  0  0  0  0  0
    1.0388    4.9680   17.5170 C   0  0  0  0  0  0  0  0  0  0  0  0
   -0.2827    5.3770   17.8458 C   0  0  0  0  0  0  0  0  0  0  0  0
   -6.4784    3.5030   13.3187 C   0  0  0  0  0  0  0  0  0  0  0  0
   -5.8904    3.5906   14.6010 C   0  0  0  0  0  0  0  0  0  0  0  0
   -3.4655    4.0326   15.2997 C   0  0  0  0  0  0  0  0  0  0  0  0
   -2.1595    4.2946   14.8036 C   0  0  0  0  0  0  0  0  0  0  0  0
   -1.9317    4.3485   13.4009 C   0  0  0  0  0  0  0  0  0  0  0  0
   -3.0088    4.1429   12.4970 C   0  0  0  0  0  0  0  0  0  0  0  0
   -4.3242    3.8932   12.9993 C   0  0  0  0  0  0  0  0  0  0  0  0
   -4.5514    3.8390   14.3867 C   0  0  0  0  0  0  0  0  0  0  0  0
  1  6  1  0  0  0  0
  2  4  1  0  0  0  0
  3  7  1  0  0  0  0
  4  5  1  0  0  0  0
  6  2  1  0  0  0  0
  7  8  1  0  0  0  0
  8  9  1  0  0  0  0
  9 10  1  0  0  0  0
 10 11  1  0  0  0  0
 10 12  1  0  0  0  0
 11 13  1  0  0  0  0
 13 15  1  0  0  0  0
 14 12  1  0  0  0  0
 15 14  1  0  0  0  0
 16 18  2  0  0  0  0
 16 22  1  0  0  0  0
 17 23  1  0  0  0  0
 17 29  1  0  0  0  0
 18 19  1  0  0  0  0
 18 26  1  0  0  0  0
 19 20  2  0  0  0  0
 20  3  1  0  0  0  0
 20 21  1  0  0  0  0
 21  5  1  0  0  0  0
 21 22  2  0  0  0  0
 23 24  2  0  0  0  0
 24 30  1  0  0  0  0
 25 26  2  0  0  0  0
 25 30  1  0  0  0  0
 26 27  1  0  0  0  0
 27 28  2  0  0  0  0
 28 29  1  0  0  0  0
 29 30  2  0  0  0  0
M  END
>  <CHROM.1>
-55.60006058,-173.57628005,-57.69451980,-179.16432968,-65.47157892,158.15792246
93.18482922,-74.26422940,-33.12520725,-79.39331756,-116.15097617,0.49959455
2.82424287,16.79329209,0.04306160,-0.64689524,0.68841790

>  <Name>
1uts_lig

>  <RI>
0

>  <Rbt.Current_Directory>
/home/itssahil/PROJECTS/Mol_Feturizer/New_Systems/rnas/1uts

>  <Rbt.Executable>
rbdock ($Id: //depot/dev/client3/rdock/2013.1/src/exe/rbdock.cxx#4 $)

>  <Rbt.Library>
libRbt.so (2013.1, Build901 2013/11/27)

>  <Rbt.Parameter_File>
/export/apps/rDock/src/rDock_2013.1_src/data/scripts/dock_solv.prm

>  <Rbt.Receptor>
prm/pocket_docking_4.prm

>  <SCORE>
-27.9976

>  <SCORE.INTER>
-26.4101

>  <SCORE.INTER.CONST>
1

>  <SCORE.INTER.POLAR>
-0.781435

>  <SCORE.INTER.ROT>
10

>  <SCORE.INTER.SOLV>
10.7217

>  <SCORE.INTER.VDW>
-28.8426

>  <SCORE.INTER.norm>
-0.880338

>  <SCORE.INTRA>
-1.58745

>  <SCORE.INTRA.DIHEDRAL>
-6.92482

>  <SCORE.INTRA.DIHEDRAL.0>
18.0451

>  <SCORE.INTRA.POLAR>
0.196815

>  <SCORE.INTRA.POLAR.0>
-0.196815

>  <SCORE.INTRA.REPUL>
0

>  <SCORE.INTRA.REPUL.0>
0

>  <SCORE.INTRA.SOLV>
-0.212232

>  <SCORE.INTRA.SOLV.lig_0>
-14.7906

>  <SCORE.INTRA.VDW>
1.31191

>  <SCORE.INTRA.VDW.0>
-0.411701

>  <SCORE.INTRA.norm>
-0.0529149

>  <SCORE.RESTR>
0

>  <SCORE.RESTR.CAVITY>
0

>  <SCORE.RESTR.norm>
0

>  <SCORE.SYSTEM>
0

>  <SCORE.SYSTEM.CONST>
0

>  <SCORE.SYSTEM.DIHEDRAL>
0

>  <SCORE.SYSTEM.SOLV>
0

>  <SCORE.SYSTEM.norm>
0

>  <SCORE.heavy>
30

>  <SCORE.norm>
-0.933253

>  <RMSD>
1.362

$$$$
1uts_lig
 OpenBabel11021811413D
libRbt.so/2013.1/901 2013/11/27
 30 33  0  0  0  0  0  0  0  0999 V2000
    4.1741    5.6369   20.8840 N   0  0  0  0  0  0  0  0  0  0  0  0
    3.5767    5.9950   18.5277 C   0  0  0  0  0  0  0  0  0  0  0  0
    2.4640    3.7291   16.1424 C   0  0  0  0  0  0  0  0  0  0  0  0
    2.0783    5.9847   18.8435 C   0  0  0  0  0  0  0  0  0  0  0  0
    1.5934    4.6344   18.8077 O   0  0  0  0  0  0  0  0  0  0  0  0
    4.3140    5.0893   19.5158 C   0  0  0  0  0  0  0  0  0  0  0  0
    2.7049    2.2708   16.2297 N   0  0  0  0  0  0  0  0  0  0  0  0
    2.3314    1.7816   17.5833 C   0  0  0  0  0  0  0  0  0  0  0  0
    2.7306    0.3104   17.7306 C   0  0  0  0  0  0  0  0  0  0  0  0
    4.1985    0.2123   17.8932 N   0  0  0  0  0  0  0  0  0  0  0  0
    4.7524   -0.6810   16.8353 C   0  0  0  0  0  0  0  0  0  0  0  0
    4.5108   -0.3284   19.2463 C   0  0  0  0  0  0  0  0  0  0  0  0
    6.2767   -0.7885   17.0033 C   0  0  0  0  0  0  0  0  0  0  0  0
    6.0368   -0.4400   19.4144 C   0  0  0  0  0  0  0  0  0  0  0  0
    6.5896   -1.3304   18.3560 N   0  0  0  0  0  0  0  0  0  0  0  0
   -1.7319    4.6388   17.0262 C   0  0  0  0  0  0  0  0  0  0  0  0
   -5.4332    3.7789   11.8838 N   0  0  0  0  0  0  0  0  0  0  0  0
   -1.3521    4.2238   15.7275 C   0  0  0  0  0  0  0  0  0  0  0  0
    0.0093    3.9310   15.4477 C   0  0  0  0  0  0  0  0  0  0  0  0
    0.9916    4.0505   16.4689 C   0  0  0  0  0  0  0  0  0  0  0  0
    0.6089    4.4849   17.7735 C   0  0  0  0  0  0  0  0  0  0  0  0
   -0.7559    4.7736   18.0486 C   0  0  0  0  0  0  0  0  0  0  0  0
   -6.4979    3.5504   12.7848 C   0  0  0  0  0  0  0  0  0  0  0  0
   -6.0335    3.5236   14.1194 C   0  0  0  0  0  0  0  0  0  0  0  0
   -3.6781    3.8455   15.0748 C   0  0  0  0  0  0  0  0  0  0  0  0
   -2.3259    4.1097   14.7254 C   0  0  0  0  0  0  0  0  0  0  0  0
   -1.9643    4.2648   13.3588 C   0  0  0  0  0  0  0  0  0  0  0  0
   -2.9540    4.1581   12.3446 C   0  0  0  0  0  0  0  0  0  0  0  0
   -4.3159    3.9060   12.7003 C   0  0  0  0  0  0  0  0  0  0  0  0
   -4.6755    3.7517   14.0517 C   0  0  0  0  0  0  0  0  0  0  0  0
  1  6  1  0  0  0  0
  2  4  1  0  0  0  0
  3  7  1  0  0  0  0
  4  5  1  0  0  0  0
  6  2  1  0  0  0  0
  7  8  1  0  0  0  0
  8  9  1  0  0  0  0
  9 10  1  0  0  0  0
 10 11  1  0  0  0  0
 10 12  1  0  0  0  0
 11 13  1  0  0  0  0
 13 15  1  0  0  0  0
 14 12  1  0  0  0  0
 15 14  1  0  0  0  0
 16 18  2  0  0  0  0
 16 22  1  0  0  0  0
 17 23  1  0  0  0  0
 17 29  1  0  0  0  0
 18 19  1  0  0  0  0
 18 26  1  0  0  0  0
 19 20  2  0  0  0  0
 20  3  1  0  0  0  0
 20 21  1  0  0  0  0
 21  5  1  0  0  0  0
 21 22  2  0  0  0  0
 23 24  2  0  0  0  0
 24 30  1  0  0  0  0
 25 26  2  0  0  0  0
 25 30  1  0  0  0  0
 26 27  1  0  0  0  0
 27 28  2  0  0  0  0
 28 29  1  0  0  0  0
 29 30  2  0  0  0  0
M  END
>  <CHROM.1>
-176.56153152,-56.63020682,-56.95207013,-117.45365576,-63.84754682,-173.45058733
74.31675819,-123.71883591,-26.65474893,-83.06849529,93.02108073,0.81651464
3.04828743,16.59647238,-0.00102230,-0.55601189,0.50893696

>  <Name>
1uts_lig

>  <RI>
0

>  <Rbt.Current_Directory>
/home/itssahil/PROJECTS/Mol_Feturizer/New_Systems/rnas/1uts

>  <Rbt.Executable>
rbdock ($Id: //depot/dev/client3/rdock/2013.1/src/exe/rbdock.cxx#4 $)

>  <Rbt.Library>
libRbt.so (2013.1, Build901 2013/11/27)

>  <Rbt.Parameter_File>
/export/apps/rDock/src/rDock_2013.1_src/data/scripts/dock_solv.prm

>  <Rbt.Receptor>
prm/pocket_docking_2.prm

>  <SCORE>
-17.8058

>  <SCORE.INTER>
-19.1482

>  <SCORE.INTER.CONST>
1

>  <SCORE.INTER.POLAR>
0

>  <SCORE.INTER.ROT>
10

>  <SCORE.INTER.SOLV>
10.27

>  <SCORE.INTER.VDW>
-26.4554

>  <SCORE.INTER.norm>
-0.638273

>  <SCORE.INTRA>
1.34044

>  <SCORE.INTRA.DIHEDRAL>
0.133

>  <SCORE.INTRA.DIHEDRAL.0>
18.0451

>  <SCORE.INTRA.POLAR>
0.196815

>  <SCORE.INTRA.POLAR.0>
-0.196815

>  <SCORE.INTRA.REPUL>
0

>  <SCORE.INTRA.REPUL.0>
0

>  <SCORE.INTRA.SOLV>
0.0367377

>  <SCORE.INTRA.SOLV.lig_0>
-14.7906

>  <SCORE.INTRA.VDW>
0.586404

>  <SCORE.INTRA.VDW.0>
-0.411701

>  <SCORE.INTRA.norm>
0.0446815

>  <SCORE.RESTR>
0.00197329

>  <SCORE.RESTR.CAVITY>
0.00197329

>  <SCORE.RESTR.norm>
6.57763e-05

>  <SCORE.SYSTEM>
0

>  <SCORE.SYSTEM.CONST>
0

>  <SCORE.SYSTEM.DIHEDRAL>
0

>  <SCORE.SYSTEM.SOLV>
0

>  <SCORE.SYSTEM.norm>
0

>  <SCORE.heavy>
30

>  <SCORE.norm>
-0.593526

>  <RMSD>
1.425

$$$$
1uts_lig
 OpenBabel11021811413D
libRbt.so/2013.1/901 2013/11/27
 30 33  0  0  0  0  0  0  0  0999 V2000
    3.5332    4.2978   20.5467 N   0  0  0  0  0  0  0  0  0  0  0  0
    3.1225    6.6666   20.0391 C   0  0  0  0  0  0  0  0  0  0  0  0
    2.7851    4.2048   15.7530 C   0  0  0  0  0  0  0  0  0  0  0  0
    1.9305    6.3972   19.1162 C   0  0  0  0  0  0  0  0  0  0  0  0
    2.1077    5.1294   18.4673 O   0  0  0  0  0  0  0  0  0  0  0  0
    3.1681    5.6044   21.1391 C   0  0  0  0  0  0  0  0  0  0  0  0
    3.2556    2.8798   16.2166 N   0  0  0  0  0  0  0  0  0  0  0  0
    4.7047    2.9488   16.5428 C   0  0  0  0  0  0  0  0  0  0  0  0
    5.3035    1.5392   16.5413 C   0  0  0  0  0  0  0  0  0  0  0  0
    4.5360    0.6770   17.4677 N   0  0  0  0  0  0  0  0  0  0  0  0
    4.7747    1.1257   18.8697 C   0  0  0  0  0  0  0  0  0  0  0  0
    4.9655   -0.7395   17.2947 C   0  0  0  0  0  0  0  0  0  0  0  0
    3.9820    0.2298   19.8352 C   0  0  0  0  0  0  0  0  0  0  0  0
    4.1751   -1.6371   18.2638 C   0  0  0  0  0  0  0  0  0  0  0  0
    4.4120   -1.1869   19.6636 N   0  0  0  0  0  0  0  0  0  0  0  0
   -1.3603    4.8899   17.0022 C   0  0  0  0  0  0  0  0  0  0  0  0
   -5.4571    3.6890   12.2429 N   0  0  0  0  0  0  0  0  0  0  0  0
   -1.0760    4.4628   15.6831 C   0  0  0  0  0  0  0  0  0  0  0  0
    0.2696    4.2431   15.2847 C   0  0  0  0  0  0  0  0  0  0  0  0
    1.3318    4.4478   16.2076 C   0  0  0  0  0  0  0  0  0  0  0  0
    1.0439    4.8942   17.5324 C   0  0  0  0  0  0  0  0  0  0  0  0
   -0.3051    5.1095   17.9264 C   0  0  0  0  0  0  0  0  0  0  0  0
   -6.4363    3.5048   13.2454 C   0  0  0  0  0  0  0  0  0  0  0  0
   -5.8599    3.5768   14.5339 C   0  0  0  0  0  0  0  0  0  0  0  0
   -3.4399    4.0022   15.2596 C   0  0  0  0  0  0  0  0  0  0  0  0
   -2.1284    4.2644   14.7783 C   0  0  0  0  0  0  0  0  0  0  0  0
   -1.8874    4.3320   13.3784 C   0  0  0  0  0  0  0  0  0  0  0  0
   -2.9568    4.1399   12.4625 C   0  0  0  0  0  0  0  0  0  0  0  0
   -4.2778    3.8901   12.9500 C   0  0  0  0  0  0  0  0  0  0  0  0
   -4.5180    3.8223   14.3346 C   0  0  0  0  0  0  0  0  0  0  0  0
  1  6  1  0  0  0  0
  2  4  1  0  0  0  0
  3  7  1  0  0  0  0
  4  5  1  0  0  0  0
  6  2  1  0  0  0  0
  7  8  1  0  0  0  0
  8  9  1  0  0  0  0
  9 10  1  0  0  0  0
 10 11  1  0  0  0  0
 10 12  1  0  0  0  0
 11 13  1  0  0  0  0
 13 15  1  0  0  0  0
 14 12  1  0  0  0  0
 15 14  1  0  0  0  0
 16 18  2  0  0  0  0
 16 22  1  0  0  0  0
 17 23  1  0  0  0  0
 17 29  1  0  0  0  0
 18 19  1  0  0  0  0
 18 26  1  0  0  0  0
 19 20  2  0  0  0  0
 20  3  1  0  0  0  0
 20 21  1  0  0  0  0
 21  5  1  0  0  0  0
 21 22  2  0  0  0  0
 23 24  2  0  0  0  0
 24 30  1  0  0  0  0
 25 26  2  0  0  0  0
 25 30  1  0  0  0  0
 26 27  1  0  0  0  0
 27 28  2  0  0  0  0
 28 29  1  0  0  0  0
 29 30  2  0  0  0  0
M  END
>  <CHROM.1>
-169.21049493,-63.05441895,-145.70942482,-176.33660124,69.20220224,-160.20645352
-55.11085888,-68.57383298,-23.24716698,-99.94713467,132.36233498,0.84046266
3.31537764,16.73384971,0.03237003,-0.57502206,0.48919973

>  <Name>
1uts_lig

>  <RI>
0

>  <Rbt.Current_Directory>
/home/itssahil/PROJECTS/Mol_Feturizer/New_Systems/rnas/1uts

>  <Rbt.Executable>
rbdock ($Id: //depot/dev/client3/rdock/2013.1/src/exe/rbdock.cxx#4 $)

>  <Rbt.Library>
libRbt.so (2013.1, Build901 2013/11/27)

>  <Rbt.Parameter_File>
/export/apps/rDock/src/rDock_2013.1_src/data/scripts/dock_solv.prm

>  <Rbt.Receptor>
prm/pocket_docking_3.prm

>  <SCORE>
-26.8182

>  <SCORE.INTER>
-22.067

>  <SCORE.INTER.CONST>
1

>  <SCORE.INTER.POLAR>
0

>  <SCORE.INTER.ROT>
10

>  <SCORE.INTER.SOLV>
10.0648

>  <SCORE.INTER.VDW>
-28.3329

>  <SCORE.INTER.norm>
-0.735567

>  <SCORE.INTRA>
-4.75117

>  <SCORE.INTRA.DIHEDRAL>
-9.91197

>  <SCORE.INTRA.DIHEDRAL.0>
18.0451

>  <SCORE.INTRA.POLAR>
-0.521626

>  <SCORE.INTRA.POLAR.0>
-0.196815

>  <SCORE.INTRA.REPUL>
0

>  <SCORE.INTRA.REPUL.0>
0

>  <SCORE.INTRA.SOLV>
0.523928

>  <SCORE.INTRA.SOLV.lig_0>
-14.7906

>  <SCORE.INTRA.VDW>
1.71638

>  <SCORE.INTRA.VDW.0>
-0.411701

>  <SCORE.INTRA.norm>
-0.158372

>  <SCORE.RESTR>
0

>  <SCORE.RESTR.CAVITY>
0

>  <SCORE.RESTR.norm>
0

>  <SCORE.SYSTEM>
0

>  <SCORE.SYSTEM.CONST>
0

>  <SCORE.SYSTEM.DIHEDRAL>
0

>  <SCORE.SYSTEM.SOLV>
0

>  <SCORE.SYSTEM.norm>
0

>  <SCORE.heavy>
30

>  <SCORE.norm>
-0.893939

>  <RMSD>
1.460

$$$$
1uts_lig
 OpenBabel11021811413D
libRbt.so/2013.1/901 2013/11/27
 30 33  0  0  0  0  0  0  0  0999 V2000
    4.2793    6.3588   18.9942 N   0  0  0  0  0  0  0  0  0  0  0  0
    2.8228    5.2260   20.6167 C   0  0  0  0  0  0  0  0  0  0  0  0
    2.7372    3.8659   15.6964 C   0  0  0  0  0  0  0  0  0  0  0  0
    1.6551    4.9968   19.6528 C   0  0  0  0  0  0  0  0  0  0  0  0
    2.1263    5.1003   18.3011 O   0  0  0  0  0  0  0  0  0  0  0  0
    3.5317    6.5338   20.2599 C   0  0  0  0  0  0  0  0  0  0  0  0
    3.1087    2.5798   16.3287 N   0  0  0  0  0  0  0  0  0  0  0  0
    4.4809    2.6771   16.8932 C   0  0  0  0  0  0  0  0  0  0  0  0
    4.6486    1.6591   18.0251 C   0  0  0  0  0  0  0  0  0  0  0  0
    4.7726    0.3004   17.4512 N   0  0  0  0  0  0  0  0  0  0  0  0
    4.4675   -0.7091   18.5056 C   0  0  0  0  0  0  0  0  0  0  0  0
    6.1560    0.1077   16.9315 C   0  0  0  0  0  0  0  0  0  0  0  0
    4.5990   -2.1220   17.9141 C   0  0  0  0  0  0  0  0  0  0  0  0
    6.2899   -1.3081   16.3424 C   0  0  0  0  0  0  0  0  0  0  0  0
    5.9827   -2.3156   17.3953 N   0  0  0  0  0  0  0  0  0  0  0  0
   -1.3419    5.0129   16.8191 C   0  0  0  0  0  0  0  0  0  0  0  0
   -5.5004    3.6835   12.1469 N   0  0  0  0  0  0  0  0  0  0  0  0
   -1.0877    4.4388   15.5506 C   0  0  0  0  0  0  0  0  0  0  0  0
    0.2365    4.0699   15.1930 C   0  0  0  0  0  0  0  0  0  0  0  0
    1.3073    4.2725   16.1063 C   0  0  0  0  0  0  0  0  0  0  0  0
    1.0513    4.8665   17.3786 C   0  0  0  0  0  0  0  0  0  0  0  0
   -0.2767    5.2310   17.7323 C   0  0  0  0  0  0  0  0  0  0  0  0
   -6.4775    3.5357   13.1574 C   0  0  0  0  0  0  0  0  0  0  0  0
   -5.8931    3.6205   14.4415 C   0  0  0  0  0  0  0  0  0  0  0  0
   -3.4619    4.0144   15.1473 C   0  0  0  0  0  0  0  0  0  0  0  0
   -2.1484    4.2435   14.6548 C   0  0  0  0  0  0  0  0  0  0  0  0
   -1.9135    4.2811   13.2528 C   0  0  0  0  0  0  0  0  0  0  0  0
   -2.9912    4.0921   12.3458 C   0  0  0  0  0  0  0  0  0  0  0  0
   -4.3139    3.8756   12.8443 C   0  0  0  0  0  0  0  0  0  0  0  0
   -4.5480    3.8375   14.2311 C   0  0  0  0  0  0  0  0  0  0  0  0
  1  6  1  0  0  0  0
  2  4  1  0  0  0  0
  3  7  1  0  0  0  0
  4  5  1  0  0  0  0
  6  2  1  0  0  0  0
  7  8  1  0  0  0  0
  8  9  1  0  0  0  0
  9 10  1  0  0  0  0
 10 11  1  0  0  0  0
 10 12  1  0  0  0  0
 11 13  1  0  0  0  0
 13 15  1  0  0  0  0
 14 12  1  0  0  0  0
 15 14  1  0  0  0  0
 16 18  2  0  0  0  0
 16 22  1  0  0  0  0
 17 23  1  0  0  0  0
 17 29  1  0  0  0  0
 18 19  1  0  0  0  0
 18 26  1  0  0  0  0
 19 20  2  0  0  0  0
 20  3  1  0  0  0  0
 20 21  1  0  0  0  0
 21  5  1  0  0  0  0
 21 22  2  0  0  0  0
 23 24  2  0  0  0  0
 24 30  1  0  0  0  0
 25 26  2  0  0  0  0
 25 30  1  0  0  0  0
 26 27  1  0  0  0  0
 27 28  2  0  0  0  0
 28 29  1  0  0  0  0
 29 30  2  0  0  0  0
M  END
>  <CHROM.1>
-72.85400518,52.24121270,-134.64674067,179.03857754,-71.50706056,155.54438518
74.14209288,-160.72094683,-29.14757799,-101.92763672,-148.90499879,1.01319295
3.14122596,16.43135342,-0.05972045,-0.51369833,0.51746555

>  <Name>
1uts_lig

>  <RI>
0

>  <Rbt.Current_Directory>
/home/itssahil/PROJECTS/Mol_Feturizer/New_Systems/rnas/1uts

>  <Rbt.Executable>
rbdock ($Id: //depot/dev/client3/rdock/2013.1/src/exe/rbdock.cxx#4 $)

>  <Rbt.Library>
libRbt.so (2013.1, Build901 2013/11/27)

>  <Rbt.Parameter_File>
/export/apps/rDock/src/rDock_2013.1_src/data/scripts/dock_solv.prm

>  <Rbt.Receptor>
prm/pocket_docking_3.prm

>  <SCORE>
-30.3328

>  <SCORE.INTER>
-27.439

>  <SCORE.INTER.CONST>
1

>  <SCORE.INTER.POLAR>
-0.632456

>  <SCORE.INTER.ROT>
10

>  <SCORE.INTER.SOLV>
11.3742

>  <SCORE.INTER.VDW>
-30.2426

>  <SCORE.INTER.norm>
-0.914635

>  <SCORE.INTRA>
-2.89376

>  <SCORE.INTRA.DIHEDRAL>
-7.9139

>  <SCORE.INTRA.DIHEDRAL.0>
18.0451

>  <SCORE.INTRA.POLAR>
-0.533534

>  <SCORE.INTRA.POLAR.0>
-0.196815

>  <SCORE.INTRA.REPUL>
0

>  <SCORE.INTRA.REPUL.0>
0

>  <SCORE.INTRA.SOLV>
0.39511

>  <SCORE.INTRA.SOLV.lig_0>
-14.7906

>  <SCORE.INTRA.VDW>
2.67965

>  <SCORE.INTRA.VDW.0>
-0.411701

>  <SCORE.INTRA.norm>
-0.0964586

>  <SCORE.RESTR>
0

>  <SCORE.RESTR.CAVITY>
0

>  <SCORE.RESTR.norm>
0

>  <SCORE.SYSTEM>
0

>  <SCORE.SYSTEM.CONST>
0

>  <SCORE.SYSTEM.DIHEDRAL>
0

>  <SCORE.SYSTEM.SOLV>
0

>  <SCORE.SYSTEM.norm>
0

>  <SCORE.heavy>
30

>  <SCORE.norm>
-1.01109

>  <RMSD>
1.468

$$$$
1uts_lig
 OpenBabel11021811413D
libRbt.so/2013.1/901 2013/11/27
 30 33  0  0  0  0  0  0  0  0999 V2000
    4.2682    6.1505   18.6469 N   0  0  0  0  0  0  0  0  0  0  0  0
    2.5502    6.2755   20.3990 C   0  0  0  0  0  0  0  0  0  0  0  0
    2.5606    4.0795   15.7416 C   0  0  0  0  0  0  0  0  0  0  0  0
    1.4025    6.0131   19.4196 C   0  0  0  0  0  0  0  0  0  0  0  0
    1.8368    5.0847   18.4150 O   0  0  0  0  0  0  0  0  0  0  0  0
    3.6734    7.0264   19.6815 C   0  0  0  0  0  0  0  0  0  0  0  0
    2.9389    2.7095   16.1565 N   0  0  0  0  0  0  0  0  0  0  0  0
    4.3470    2.7017   16.6341 C   0  0  0  0  0  0  0  0  0  0  0  0
    4.8526    1.2594   16.7323 C   0  0  0  0  0  0  0  0  0  0  0  0
    3.9737    0.4902   17.6415 N   0  0  0  0  0  0  0  0  0  0  0  0
    4.1302    1.0071   19.0316 C   0  0  0  0  0  0  0  0  0  0  0  0
    4.3399   -0.9530   17.5790 C   0  0  0  0  0  0  0  0  0  0  0  0
    3.2216    0.2078   19.9796 C   0  0  0  0  0  0  0  0  0  0  0  0
    3.4331   -1.7539   18.5308 C   0  0  0  0  0  0  0  0  0  0  0  0
    3.5882   -1.2355   19.9184 N   0  0  0  0  0  0  0  0  0  0  0  0
   -1.5937    4.9289   16.8531 C   0  0  0  0  0  0  0  0  0  0  0  0
   -5.5881    3.7339   12.0045 N   0  0  0  0  0  0  0  0  0  0  0  0
   -1.2860    4.4641   15.5522 C   0  0  0  0  0  0  0  0  0  0  0  0
    0.0623    4.1912   15.1984 C   0  0  0  0  0  0  0  0  0  0  0  0
    1.1037    4.3805   16.1479 C   0  0  0  0  0  0  0  0  0  0  0  0
    0.7931    4.8648   17.4540 C   0  0  0  0  0  0  0  0  0  0  0  0
   -0.5588    5.1333   17.8035 C   0  0  0  0  0  0  0  0  0  0  0  0
   -6.5711    3.4462   12.9785 C   0  0  0  0  0  0  0  0  0  0  0  0
   -6.0142    3.4591   14.2775 C   0  0  0  0  0  0  0  0  0  0  0  0
   -3.6232    3.9355   15.0650 C   0  0  0  0  0  0  0  0  0  0  0  0
   -2.3179    4.2812   14.6209 C   0  0  0  0  0  0  0  0  0  0  0  0
   -2.0626    4.4480   13.2320 C   0  0  0  0  0  0  0  0  0  0  0  0
   -3.1117    4.2714   12.2897 C   0  0  0  0  0  0  0  0  0  0  0  0
   -4.4271    3.9373   12.7406 C   0  0  0  0  0  0  0  0  0  0  0  0
   -4.6814    3.7713   14.1143 C   0  0  0  0  0  0  0  0  0  0  0  0
  1  6  1  0  0  0  0
  2  4  1  0  0  0  0
  3  7  1  0  0  0  0
  4  5  1  0  0  0  0
  6  2  1  0  0  0  0
  7  8  1  0  0  0  0
  8  9  1  0  0  0  0
  9 10  1  0  0  0  0
 10 11  1  0  0  0  0
 10 12  1  0  0  0  0
 11 13  1  0  0  0  0
 13 15  1  0  0  0  0
 14 12  1  0  0  0  0
 15 14  1  0  0  0  0
 16 18  2  0  0  0  0
 16 22  1  0  0  0  0
 17 23  1  0  0  0  0
 17 29  1  0  0  0  0
 18 19  1  0  0  0  0
 18 26  1  0  0  0  0
 19 20  2  0  0  0  0
 20  3  1  0  0  0  0
 20 21  1  0  0  0  0
 21  5  1  0  0  0  0
 21 22  2  0  0  0  0
 23 24  2  0  0  0  0
 24 30  1  0  0  0  0
 25 26  2  0  0  0  0
 25 30  1  0  0  0  0
 26 27  1  0  0  0  0
 27 28  2  0  0  0  0
 28 29  1  0  0  0  0
 29 30  2  0  0  0  0
M  END
>  <CHROM.1>
163.32039907,67.24160815,-141.81447480,-177.68856009,-66.22375237,-166.01436661
-57.65450749,-67.41195474,-29.79498980,-95.65230890,158.05163901,0.55873165
3.35954222,16.59957564,-0.09000337,-0.58638945,0.23276453

>  <Name>
1uts_lig

>  <RI>
0

>  <Rbt.Current_Directory>
/home/itssahil/PROJECTS/Mol_Feturizer/New_Systems/rnas/1uts

>  <Rbt.Executable>
rbdock ($Id: //depot/dev/client3/rdock/2013.1/src/exe/rbdock.cxx#4 $)

>  <Rbt.Library>
libRbt.so (2013.1, Build901 2013/11/27)

>  <Rbt.Parameter_File>
/export/apps/rDock/src/rDock_2013.1_src/data/scripts/dock_solv.prm

>  <Rbt.Receptor>
prm/pocket_docking_3.prm

>  <SCORE>
-29.6591

>  <SCORE.INTER>
-26.0976

>  <SCORE.INTER.CONST>
1

>  <SCORE.INTER.POLAR>
-0.631881

>  <SCORE.INTER.ROT>
10

>  <SCORE.INTER.SOLV>
11.3352

>  <SCORE.INTER.VDW>
-29.3372

>  <SCORE.INTER.norm>
-0.869921

>  <SCORE.INTRA>
-3.56149

>  <SCORE.INTRA.DIHEDRAL>
-11.295

>  <SCORE.INTRA.DIHEDRAL.0>
18.0451

>  <SCORE.INTRA.POLAR>
-0.586482

>  <SCORE.INTRA.POLAR.0>
-0.196815

>  <SCORE.INTRA.REPUL>
0

>  <SCORE.INTRA.REPUL.0>
0

>  <SCORE.INTRA.SOLV>
0.466305

>  <SCORE.INTRA.SOLV.lig_0>
-14.7906

>  <SCORE.INTRA.VDW>
3.84689

>  <SCORE.INTRA.VDW.0>
-0.411701

>  <SCORE.INTRA.norm>
-0.118716

>  <SCORE.RESTR>
0

>  <SCORE.RESTR.CAVITY>
0

>  <SCORE.RESTR.norm>
0

>  <SCORE.SYSTEM>
0

>  <SCORE.SYSTEM.CONST>
0

>  <SCORE.SYSTEM.DIHEDRAL>
0

>  <SCORE.SYSTEM.SOLV>
0

>  <SCORE.SYSTEM.norm>
0

>  <SCORE.heavy>
30

>  <SCORE.norm>
-0.988637

>  <RMSD>
1.479

$$$$
1uts_lig
 OpenBabel11021811413D
libRbt.so/2013.1/901 2013/11/27
 30 33  0  0  0  0  0  0  0  0999 V2000
    4.8164    6.4529   21.0639 N   0  0  0  0  0  0  0  0  0  0  0  0
    2.8488    5.0825   20.5273 C   0  0  0  0  0  0  0  0  0  0  0  0
    2.6695    3.4570   15.6654 C   0  0  0  0  0  0  0  0  0  0  0  0
    1.6671    4.9325   19.5648 C   0  0  0  0  0  0  0  0  0  0  0  0
    2.1582    4.8334   18.2198 O   0  0  0  0  0  0  0  0  0  0  0  0
    3.6296    6.3526   20.1847 C   0  0  0  0  0  0  0  0  0  0  0  0
    3.2181    2.6110   16.7496 N   0  0  0  0  0  0  0  0  0  0  0  0
    2.6957    1.2252   16.6165 C   0  0  0  0  0  0  0  0  0  0  0  0
    3.3082    0.3345   17.7013 C   0  0  0  0  0  0  0  0  0  0  0  0
    2.8771   -1.0657   17.4905 N   0  0  0  0  0  0  0  0  0  0  0  0
    1.3994   -1.1581   17.6693 C   0  0  0  0  0  0  0  0  0  0  0  0
    3.5753   -1.9500   18.4659 C   0  0  0  0  0  0  0  0  0  0  0  0
    0.9484   -2.6120   17.4548 C   0  0  0  0  0  0  0  0  0  0  0  0
    3.1216   -3.4056   18.2546 C   0  0  0  0  0  0  0  0  0  0  0  0
    1.6454   -3.4967   18.4309 N   0  0  0  0  0  0  0  0  0  0  0  0
   -1.3047    4.9695   16.7294 C   0  0  0  0  0  0  0  0  0  0  0  0
   -5.5538    3.7745   12.0997 N   0  0  0  0  0  0  0  0  0  0  0  0
   -1.0968    4.3297   15.4841 C   0  0  0  0  0  0  0  0  0  0  0  0
    0.1937    3.8423   15.1454 C   0  0  0  0  0  0  0  0  0  0  0  0
    1.2767    3.9923   16.0545 C   0  0  0  0  0  0  0  0  0  0  0  0
    1.0685    4.6523   17.3028 C   0  0  0  0  0  0  0  0  0  0  0  0
   -0.2261    5.1354   17.6377 C   0  0  0  0  0  0  0  0  0  0  0  0
   -6.5186    3.5729   13.1127 C   0  0  0  0  0  0  0  0  0  0  0  0
   -5.9180    3.5848   14.3921 C   0  0  0  0  0  0  0  0  0  0  0  0
   -3.4770    3.9335   15.0879 C   0  0  0  0  0  0  0  0  0  0  0  0
   -2.1691    4.1868   14.5923 C   0  0  0  0  0  0  0  0  0  0  0  0
   -1.9517    4.3018   13.1917 C   0  0  0  0  0  0  0  0  0  0  0  0
   -3.0411    4.1659   12.2893 C   0  0  0  0  0  0  0  0  0  0  0  0
   -4.3581    3.9249   12.7917 C   0  0  0  0  0  0  0  0  0  0  0  0
   -4.5750    3.8103   14.1771 C   0  0  0  0  0  0  0  0  0  0  0  0
  1  6  1  0  0  0  0
  2  4  1  0  0  0  0
  3  7  1  0  0  0  0
  4  5  1  0  0  0  0
  6  2  1  0  0  0  0
  7  8  1  0  0  0  0
  8  9  1  0  0  0  0
  9 10  1  0  0  0  0
 10 11  1  0  0  0  0
 10 12  1  0  0  0  0
 11 13  1  0  0  0  0
 13 15  1  0  0  0  0
 14 12  1  0  0  0  0
 15 14  1  0  0  0  0
 16 18  2  0  0  0  0
 16 22  1  0  0  0  0
 17 23  1  0  0  0  0
 17 29  1  0  0  0  0
 18 19  1  0  0  0  0
 18 26  1  0  0  0  0
 19 20  2  0  0  0  0
 20  3  1  0  0  0  0
 20 21  1  0  0  0  0
 21  5  1  0  0  0  0
 21 22  2  0  0  0  0
 23 24  2  0  0  0  0
 24 30  1  0  0  0  0
 25 26  2  0  0  0  0
 25 30  1  0  0  0  0
 26 27  1  0  0  0  0
 27 28  2  0  0  0  0
 28 29  1  0  0  0  0
 29 30  2  0  0  0  0
M  END
>  <CHROM.1>
-177.65415120,60.48092160,84.24297776,178.30631262,-176.66176608,177.60877894
-175.06784241,-64.35681071,-36.15877120,-129.47128798,-153.78396231,0.26792784
2.72211673,16.59314345,-0.24493653,-0.63792600,0.12124646

>  <Name>
1uts_lig

>  <RI>
0

>  <Rbt.Current_Directory>
/home/itssahil/PROJECTS/Mol_Feturizer/New_Systems/rnas/1uts

>  <Rbt.Executable>
rbdock ($Id: //depot/dev/client3/rdock/2013.1/src/exe/rbdock.cxx#4 $)

>  <Rbt.Library>
libRbt.so (2013.1, Build901 2013/11/27)

>  <Rbt.Parameter_File>
/export/apps/rDock/src/rDock_2013.1_src/data/scripts/dock_solv.prm

>  <Rbt.Receptor>
prm/pocket_docking_3.prm

>  <SCORE>
-29.6854

>  <SCORE.INTER>
-25.3009

>  <SCORE.INTER.CONST>
1

>  <SCORE.INTER.POLAR>
-0.787225

>  <SCORE.INTER.ROT>
10

>  <SCORE.INTER.SOLV>
9.61956

>  <SCORE.INTER.VDW>
-27.7164

>  <SCORE.INTER.norm>
-0.843364

>  <SCORE.INTRA>
-4.38447

>  <SCORE.INTRA.DIHEDRAL>
-13.2129

>  <SCORE.INTRA.DIHEDRAL.0>
18.0451

>  <SCORE.INTRA.POLAR>
-0.338122

>  <SCORE.INTRA.POLAR.0>
-0.196815

>  <SCORE.INTRA.REPUL>
0

>  <SCORE.INTRA.REPUL.0>
0

>  <SCORE.INTRA.SOLV>
-0.323146

>  <SCORE.INTRA.SOLV.lig_0>
-14.7906

>  <SCORE.INTRA.VDW>
3.53317

>  <SCORE.INTRA.VDW.0>
-0.411701

>  <SCORE.INTRA.norm>
-0.146149

>  <SCORE.RESTR>
0

>  <SCORE.RESTR.CAVITY>
0

>  <SCORE.RESTR.norm>
0

>  <SCORE.SYSTEM>
0

>  <SCORE.SYSTEM.CONST>
0

>  <SCORE.SYSTEM.DIHEDRAL>
0

>  <SCORE.SYSTEM.SOLV>
0

>  <SCORE.SYSTEM.norm>
0

>  <SCORE.heavy>
30

>  <SCORE.norm>
-0.989513

>  <RMSD>
1.487

$$$$
1uts_lig
 OpenBabel11021811413D
libRbt.so/2013.1/901 2013/11/27
 30 33  0  0  0  0  0  0  0  0999 V2000
    2.4761    5.0386   22.1864 N   0  0  0  0  0  0  0  0  0  0  0  0
    3.5097    3.9849   20.2220 C   0  0  0  0  0  0  0  0  0  0  0  0
    1.6733    1.7506   16.9276 C   0  0  0  0  0  0  0  0  0  0  0  0
    2.1591    3.9206   19.5030 C   0  0  0  0  0  0  0  0  0  0  0  0
    2.3217    4.3544   18.1446 O   0  0  0  0  0  0  0  0  0  0  0  0
    3.2900    3.8882   21.7329 C   0  0  0  0  0  0  0  0  0  0  0  0
    2.8227    1.8988   16.0062 N   0  0  0  0  0  0  0  0  0  0  0  0
    4.0113    2.3769   16.7609 C   0  0  0  0  0  0  0  0  0  0  0  0
    4.2257    1.5006   17.9985 C   0  0  0  0  0  0  0  0  0  0  0  0
    4.4621    0.1017   17.5767 N   0  0  0  0  0  0  0  0  0  0  0  0
    3.9103   -0.8235   18.6079 C   0  0  0  0  0  0  0  0  0  0  0  0
    5.9256   -0.1225   17.4065 C   0  0  0  0  0  0  0  0  0  0  0  0
    4.1575   -2.2777   18.1750 C   0  0  0  0  0  0  0  0  0  0  0  0
    6.1746   -1.5794   16.9766 C   0  0  0  0  0  0  0  0  0  0  0  0
    5.6211   -2.5028   18.0058 N   0  0  0  0  0  0  0  0  0  0  0  0
   -1.0110    5.1998   16.5923 C   0  0  0  0  0  0  0  0  0  0  0  0
   -6.2820    3.6129   13.2971 N   0  0  0  0  0  0  0  0  0  0  0  0
   -1.3511    3.9711   15.9776 C   0  0  0  0  0  0  0  0  0  0  0  0
   -0.4765    2.8575   16.0898 C   0  0  0  0  0  0  0  0  0  0  0  0
    0.7381    2.9720   16.8202 C   0  0  0  0  0  0  0  0  0  0  0  0
    1.0868    4.2167   17.4255 C   0  0  0  0  0  0  0  0  0  0  0  0
    0.2060    5.3271   17.3125 C   0  0  0  0  0  0  0  0  0  0  0  0
   -7.1083    3.6715   14.4423 C   0  0  0  0  0  0  0  0  0  0  0  0
   -6.3330    3.7600   15.6207 C   0  0  0  0  0  0  0  0  0  0  0  0
   -3.7935    3.8566   15.9458 C   0  0  0  0  0  0  0  0  0  0  0  0
   -2.5496    3.8661   15.2579 C   0  0  0  0  0  0  0  0  0  0  0  0
   -2.5236    3.7761   13.8390 C   0  0  0  0  0  0  0  0  0  0  0  0
   -3.7397    3.6790   13.1100 C   0  0  0  0  0  0  0  0  0  0  0  0
   -4.9900    3.6837   13.8040 C   0  0  0  0  0  0  0  0  0  0  0  0
   -5.0177    3.7721   15.2078 C   0  0  0  0  0  0  0  0  0  0  0  0
  1  6  1  0  0  0  0
  2  4  1  0  0  0  0
  3  7  1  0  0  0  0
  4  5  1  0  0  0  0
  6  2  1  0  0  0  0
  7  8  1  0  0  0  0
  8  9  1  0  0  0  0
  9 10  1  0  0  0  0
 10 11  1  0  0  0  0
 10 12  1  0  0  0  0
 11 13  1  0  0  0  0
 13 15  1  0  0  0  0
 14 12  1  0  0  0  0
 15 14  1  0  0  0  0
 16 18  2  0  0  0  0
 16 22  1  0  0  0  0
 17 23  1  0  0  0  0
 17 29  1  0  0  0  0
 18 19  1  0  0  0  0
 18 26  1  0  0  0  0
 19 20  2  0  0  0  0
 20  3  1  0  0  0  0
 20 21  1  0  0  0  0
 21  5  1  0  0  0  0
 21 22  2  0  0  0  0
 23 24  2  0  0  0  0
 24 30  1  0  0  0  0
 25 26  2  0  0  0  0
 25 30  1  0  0  0  0
 26 27  1  0  0  0  0
 27 28  2  0  0  0  0
 28 29  1  0  0  0  0
 29 30  2  0  0  0  0
M  END
>  <CHROM.1>
-176.44275030,165.10280983,99.66759147,176.10688380,-61.83586561,50.34833182
60.77088738,-147.66861583,-71.35139490,102.78918949,-85.32477599,0.64725906
2.59090244,16.99635684,-0.00819159,-0.50430559,0.69898082

>  <Name>
1uts_lig

>  <RI>
0

>  <Rbt.Current_Directory>
/home/itssahil/PROJECTS/Mol_Feturizer/New_Systems/rnas/1uts

>  <Rbt.Executable>
rbdock ($Id: //depot/dev/client3/rdock/2013.1/src/exe/rbdock.cxx#4 $)

>  <Rbt.Library>
libRbt.so (2013.1, Build901 2013/11/27)

>  <Rbt.Parameter_File>
/export/apps/rDock/src/rDock_2013.1_src/data/scripts/dock_solv.prm

>  <Rbt.Receptor>
prm/pocket_docking_2.prm

>  <SCORE>
-10.7146

>  <SCORE.INTER>
-12.5026

>  <SCORE.INTER.CONST>
1

>  <SCORE.INTER.POLAR>
0

>  <SCORE.INTER.ROT>
10

>  <SCORE.INTER.SOLV>
8.4884

>  <SCORE.INTER.VDW>
-21.4312

>  <SCORE.INTER.norm>
-0.416755

>  <SCORE.INTRA>
1.50828

>  <SCORE.INTRA.DIHEDRAL>
-2.4588

>  <SCORE.INTRA.DIHEDRAL.0>
18.0451

>  <SCORE.INTRA.POLAR>
0.196815

>  <SCORE.INTRA.POLAR.0>
-0.196815

>  <SCORE.INTRA.REPUL>
0

>  <SCORE.INTRA.REPUL.0>
0

>  <SCORE.INTRA.SOLV>
0.0816598

>  <SCORE.INTRA.SOLV.lig_0>
-14.7906

>  <SCORE.INTRA.VDW>
2.02768

>  <SCORE.INTRA.VDW.0>
-0.411701

>  <SCORE.INTRA.norm>
0.0502759

>  <SCORE.RESTR>
0.279779

>  <SCORE.RESTR.CAVITY>
0.279779

>  <SCORE.RESTR.norm>
0.00932597

>  <SCORE.SYSTEM>
0

>  <SCORE.SYSTEM.CONST>
0

>  <SCORE.SYSTEM.DIHEDRAL>
0

>  <SCORE.SYSTEM.SOLV>
0

>  <SCORE.SYSTEM.norm>
0

>  <SCORE.heavy>
30

>  <SCORE.norm>
-0.357153

>  <RMSD>
1.490

$$$$
1uts_lig
 OpenBabel11021811413D
libRbt.so/2013.1/901 2013/11/27
 30 33  0  0  0  0  0  0  0  0999 V2000
    5.8886    2.8861   19.7644 N   0  0  0  0  0  0  0  0  0  0  0  0
    4.1787    4.3573   18.7903 C   0  0  0  0  0  0  0  0  0  0  0  0
    1.1028    1.1386   17.1615 C   0  0  0  0  0  0  0  0  0  0  0  0
    2.9812    4.4072   17.8371 C   0  0  0  0  0  0  0  0  0  0  0  0
    1.8819    3.6884   18.4155 O   0  0  0  0  0  0  0  0  0  0  0  0
    4.7551    2.9405   18.8138 C   0  0  0  0  0  0  0  0  0  0  0  0
    2.4004    1.1197   16.4488 N   0  0  0  0  0  0  0  0  0  0  0  0
    2.9222   -0.2717   16.3952 C   0  0  0  0  0  0  0  0  0  0  0  0
    3.5968   -0.6234   17.7244 C   0  0  0  0  0  0  0  0  0  0  0  0
    3.7850   -2.0891   17.8086 N   0  0  0  0  0  0  0  0  0  0  0  0
    2.5291   -2.7189   18.3087 C   0  0  0  0  0  0  0  0  0  0  0  0
    4.9192   -2.3897   18.7274 C   0  0  0  0  0  0  0  0  0  0  0  0
    2.7222   -4.2412   18.4011 C   0  0  0  0  0  0  0  0  0  0  0  0
    5.1110   -3.9140   18.8237 C   0  0  0  0  0  0  0  0  0  0  0  0
    3.8556   -4.5425   19.3209 N   0  0  0  0  0  0  0  0  0  0  0  0
   -1.0387    4.8748   16.3432 C   0  0  0  0  0  0  0  0  0  0  0  0
   -5.9095    3.7539   12.3023 N   0  0  0  0  0  0  0  0  0  0  0  0
   -1.4335    3.6741   15.7062 C   0  0  0  0  0  0  0  0  0  0  0  0
   -0.7350    2.4670   15.9755 C   0  0  0  0  0  0  0  0  0  0  0  0
    0.3578    2.4602   16.8853 C   0  0  0  0  0  0  0  0  0  0  0  0
    0.7646    3.6752   17.5141 C   0  0  0  0  0  0  0  0  0  0  0  0
    0.0596    4.8799   17.2430 C   0  0  0  0  0  0  0  0  0  0  0  0
   -6.8930    3.5803   13.3024 C   0  0  0  0  0  0  0  0  0  0  0  0
   -6.2990    3.4552   14.5788 C   0  0  0  0  0  0  0  0  0  0  0  0
   -3.8388    3.5287   15.2905 C   0  0  0  0  0  0  0  0  0  0  0  0
   -2.5110    3.6889   14.8093 C   0  0  0  0  0  0  0  0  0  0  0  0
   -2.2782    3.8710   13.4183 C   0  0  0  0  0  0  0  0  0  0  0  0
   -3.3719    3.8951   12.5113 C   0  0  0  0  0  0  0  0  0  0  0  0
   -4.7077    3.7476   13.0001 C   0  0  0  0  0  0  0  0  0  0  0  0
   -4.9399    3.5667   14.3758 C   0  0  0  0  0  0  0  0  0  0  0  0
  1  6  1  0  0  0  0
  2  4  1  0  0  0  0
  3  7  1  0  0  0  0
  4  5  1  0  0  0  0
  6  2  1  0  0  0  0
  7  8  1  0  0  0  0
  8  9  1  0  0  0  0
  9 10  1  0  0  0  0
 10 11  1  0  0  0  0
 10 12  1  0  0  0  0
 11 13  1  0  0  0  0
 13 15  1  0  0  0  0
 14 12  1  0  0  0  0
 15 14  1  0  0  0  0
 16 18  2  0  0  0  0
 16 22  1  0  0  0  0
 17 23  1  0  0  0  0
 17 29  1  0  0  0  0
 18 19  1  0  0  0  0
 18 26  1  0  0  0  0
 19 20  2  0  0  0  0
 20  3  1  0  0  0  0
 20 21  1  0  0  0  0
 21  5  1  0  0  0  0
 21 22  2  0  0  0  0
 23 24  2  0  0  0  0
 24 30  1  0  0  0  0
 25 26  2  0  0  0  0
 25 30  1  0  0  0  0
 26 27  1  0  0  0  0
 27 28  2  0  0  0  0
 28 29  1  0  0  0  0
 29 30  2  0  0  0  0
M  END
>  <CHROM.1>
60.93103353,70.79845296,-163.82964918,-177.63650648,-178.43310998,-80.73456179
164.85678626,-84.01535335,-86.73323301,103.80610457,111.10426549,0.53717128
1.71918873,16.63729041,-0.47380596,-0.51058834,0.02146132

>  <Name>
1uts_lig

>  <RI>
0

>  <Rbt.Current_Directory>
/home/itssahil/PROJECTS/Mol_Feturizer/New_Systems/rnas/1uts

>  <Rbt.Executable>
rbdock ($Id: //depot/dev/client3/rdock/2013.1/src/exe/rbdock.cxx#4 $)

>  <Rbt.Library>
libRbt.so (2013.1, Build901 2013/11/27)

>  <Rbt.Parameter_File>
/export/apps/rDock/src/rDock_2013.1_src/data/scripts/dock_solv.prm

>  <Rbt.Receptor>
prm/pocket_docking_3.prm

>  <SCORE>
-22.5037

>  <SCORE.INTER>
-19.7483

>  <SCORE.INTER.CONST>
1

>  <SCORE.INTER.POLAR>
-0.8

>  <SCORE.INTER.ROT>
10

>  <SCORE.INTER.SOLV>
9.19389

>  <SCORE.INTER.VDW>
-23.8302

>  <SCORE.INTER.norm>
-0.658276

>  <SCORE.INTRA>
-2.75538

>  <SCORE.INTRA.DIHEDRAL>
-4.21813

>  <SCORE.INTRA.DIHEDRAL.0>
18.0451

>  <SCORE.INTRA.POLAR>
0.196815

>  <SCORE.INTRA.POLAR.0>
-0.196815

>  <SCORE.INTRA.REPUL>
0

>  <SCORE.INTRA.REPUL.0>
0

>  <SCORE.INTRA.SOLV>
-0.320722

>  <SCORE.INTRA.SOLV.lig_0>
-14.7906

>  <SCORE.INTRA.VDW>
-1.15513

>  <SCORE.INTRA.VDW.0>
-0.411701

>  <SCORE.INTRA.norm>
-0.0918461

>  <SCORE.RESTR>
0

>  <SCORE.RESTR.CAVITY>
0

>  <SCORE.RESTR.norm>
0

>  <SCORE.SYSTEM>
0

>  <SCORE.SYSTEM.CONST>
0

>  <SCORE.SYSTEM.DIHEDRAL>
0

>  <SCORE.SYSTEM.SOLV>
0

>  <SCORE.SYSTEM.norm>
0

>  <SCORE.heavy>
30

>  <SCORE.norm>
-0.750122

>  <RMSD>
1.513

$$$$
1uts_lig
 OpenBabel11021811413D
libRbt.so/2013.1/901 2013/11/27
 30 33  0  0  0  0  0  0  0  0999 V2000
    3.6323    6.7405   20.5415 N   0  0  0  0  0  0  0  0  0  0  0  0
    1.2980    6.4619   19.8269 C   0  0  0  0  0  0  0  0  0  0  0  0
    1.3286    1.7574   17.3795 C   0  0  0  0  0  0  0  0  0  0  0  0
    1.2844    4.9406   20.0023 C   0  0  0  0  0  0  0  0  0  0  0  0
    1.7200    4.3170   18.7853 O   0  0  0  0  0  0  0  0  0  0  0  0
    2.6973    6.9159   19.4073 C   0  0  0  0  0  0  0  0  0  0  0  0
    2.3939    1.7347   16.3515 N   0  0  0  0  0  0  0  0  0  0  0  0
    3.2204    0.5094   16.5137 C   0  0  0  0  0  0  0  0  0  0  0  0
    4.1893    0.6898   17.6860 C   0  0  0  0  0  0  0  0  0  0  0  0
    4.7715   -0.6215   18.0501 N   0  0  0  0  0  0  0  0  0  0  0  0
    5.5109   -1.1742   16.8789 C   0  0  0  0  0  0  0  0  0  0  0  0
    3.6805   -1.5495   18.4614 C   0  0  0  0  0  0  0  0  0  0  0  0
    6.1139   -2.5381   17.2521 C   0  0  0  0  0  0  0  0  0  0  0  0
    4.2827   -2.9169   18.8319 C   0  0  0  0  0  0  0  0  0  0  0  0
    5.0230   -3.4671   17.6625 N   0  0  0  0  0  0  0  0  0  0  0  0
   -1.3263    5.1857   16.7366 C   0  0  0  0  0  0  0  0  0  0  0  0
   -5.9537    3.6535   12.5604 N   0  0  0  0  0  0  0  0  0  0  0  0
   -1.5380    3.9790   16.0278 C   0  0  0  0  0  0  0  0  0  0  0  0
   -0.6737    2.8721   16.2405 C   0  0  0  0  0  0  0  0  0  0  0  0
    0.4017    2.9711   17.1655 C   0  0  0  0  0  0  0  0  0  0  0  0
    0.6232    4.1942   17.8671 C   0  0  0  0  0  0  0  0  0  0  0  0
   -0.2471    5.2979   17.6524 C   0  0  0  0  0  0  0  0  0  0  0  0
   -6.9509    3.5480   13.5565 C   0  0  0  0  0  0  0  0  0  0  0  0
   -6.3770    3.5510   14.8481 C   0  0  0  0  0  0  0  0  0  0  0  0
   -3.9320    3.7431   15.5890 C   0  0  0  0  0  0  0  0  0  0  0  0
   -2.5994    3.8893   15.1163 C   0  0  0  0  0  0  0  0  0  0  0  0
   -2.3460    3.9515   13.7184 C   0  0  0  0  0  0  0  0  0  0  0  0
   -3.4238    3.8697   12.7958 C   0  0  0  0  0  0  0  0  0  0  0  0
   -4.7646    3.7366   13.2748 C   0  0  0  0  0  0  0  0  0  0  0  0
   -5.0172    3.6744   14.6574 C   0  0  0  0  0  0  0  0  0  0  0  0
  1  6  1  0  0  0  0
  2  4  1  0  0  0  0
  3  7  1  0  0  0  0
  4  5  1  0  0  0  0
  6  2  1  0  0  0  0
  7  8  1  0  0  0  0
  8  9  1  0  0  0  0
  9 10  1  0  0  0  0
 10 11  1  0  0  0  0
 10 12  1  0  0  0  0
 11 13  1  0  0  0  0
 13 15  1  0  0  0  0
 14 12  1  0  0  0  0
 15 14  1  0  0  0  0
 16 18  2  0  0  0  0
 16 22  1  0  0  0  0
 17 23  1  0  0  0  0
 17 29  1  0  0  0  0
 18 19  1  0  0  0  0
 18 26  1  0  0  0  0
 19 20  2  0  0  0  0
 20  3  1  0  0  0  0
 20 21  1  0  0  0  0
 21  5  1  0  0  0  0
 21 22  2  0  0  0  0
 23 24  2  0  0  0  0
 24 30  1  0  0  0  0
 25 26  2  0  0  0  0
 25 30  1  0  0  0  0
 26 27  1  0  0  0  0
 27 28  2  0  0  0  0
 28 29  1  0  0  0  0
 29 30  2  0  0  0  0
M  END
>  <CHROM.1>
-179.27642036,-56.38161499,-176.07335442,-83.71735047,-69.51841360,-77.49285954
166.51304071,60.30336225,-75.75304894,84.43945386,-134.42891675,0.43495715
2.60351801,16.80770940,-0.23280557,-0.53409114,0.44419674

>  <Name>
1uts_lig

>  <RI>
0

>  <Rbt.Current_Directory>
/home/itssahil/PROJECTS/Mol_Feturizer/New_Systems/rnas/1uts

>  <Rbt.Executable>
rbdock ($Id: //depot/dev/client3/rdock/2013.1/src/exe/rbdock.cxx#4 $)

>  <Rbt.Library>
libRbt.so (2013.1, Build901 2013/11/27)

>  <Rbt.Parameter_File>
/export/apps/rDock/src/rDock_2013.1_src/data/scripts/dock_solv.prm

>  <Rbt.Receptor>
prm/pocket_docking_3.prm

>  <SCORE>
-17.8413

>  <SCORE.INTER>
-20.7229

>  <SCORE.INTER.CONST>
1

>  <SCORE.INTER.POLAR>
-0.752499

>  <SCORE.INTER.ROT>
10

>  <SCORE.INTER.SOLV>
9.39335

>  <SCORE.INTER.VDW>
-24.7047

>  <SCORE.INTER.norm>
-0.690764

>  <SCORE.INTRA>
2.88159

>  <SCORE.INTRA.DIHEDRAL>
-6.12603

>  <SCORE.INTRA.DIHEDRAL.0>
18.0451

>  <SCORE.INTRA.POLAR>
0.196815

>  <SCORE.INTRA.POLAR.0>
-0.196815

>  <SCORE.INTRA.REPUL>
0

>  <SCORE.INTRA.REPUL.0>
0

>  <SCORE.INTRA.SOLV>
-0.229218

>  <SCORE.INTRA.SOLV.lig_0>
-14.7906

>  <SCORE.INTRA.VDW>
5.39004

>  <SCORE.INTRA.VDW.0>
-0.411701

>  <SCORE.INTRA.norm>
0.0960529

>  <SCORE.RESTR>
0

>  <SCORE.RESTR.CAVITY>
0

>  <SCORE.RESTR.norm>
0

>  <SCORE.SYSTEM>
0

>  <SCORE.SYSTEM.CONST>
0

>  <SCORE.SYSTEM.DIHEDRAL>
0

>  <SCORE.SYSTEM.SOLV>
0

>  <SCORE.SYSTEM.norm>
0

>  <SCORE.heavy>
30

>  <SCORE.norm>
-0.594711

>  <RMSD>
1.514

$$$$
1uts_lig
 OpenBabel11021811413D
libRbt.so/2013.1/901 2013/11/27
 30 33  0  0  0  0  0  0  0  0999 V2000
    4.9755    5.5867   19.9967 N   0  0  0  0  0  0  0  0  0  0  0  0
    2.5545    5.7061   20.3987 C   0  0  0  0  0  0  0  0  0  0  0  0
    2.4405    3.0410   15.9519 C   0  0  0  0  0  0  0  0  0  0  0  0
    2.0458    5.6751   18.9546 C   0  0  0  0  0  0  0  0  0  0  0  0
    1.8578    4.3124   18.5452 O   0  0  0  0  0  0  0  0  0  0  0  0
    3.8091    4.8389   20.5179 C   0  0  0  0  0  0  0  0  0  0  0  0
    2.8631    2.0611   16.9782 N   0  0  0  0  0  0  0  0  0  0  0  0
    4.2999    1.7275   16.7907 C   0  0  0  0  0  0  0  0  0  0  0  0
    4.4905    0.2089   16.8464 C   0  0  0  0  0  0  0  0  0  0  0  0
    4.0897   -0.2892   18.1814 N   0  0  0  0  0  0  0  0  0  0  0  0
    5.1697    0.0131   19.1643 C   0  0  0  0  0  0  0  0  0  0  0  0
    3.8487   -1.7581   18.1088 C   0  0  0  0  0  0  0  0  0  0  0  0
    4.7586   -0.5064   20.5515 C   0  0  0  0  0  0  0  0  0  0  0  0
    3.4405   -2.2800   19.4983 C   0  0  0  0  0  0  0  0  0  0  0  0
    4.5186   -1.9756   20.4798 N   0  0  0  0  0  0  0  0  0  0  0  0
   -1.5159    4.6749   16.8964 C   0  0  0  0  0  0  0  0  0  0  0  0
   -5.2332    3.8772   11.6456 N   0  0  0  0  0  0  0  0  0  0  0  0
   -1.2718    4.0880   15.6319 C   0  0  0  0  0  0  0  0  0  0  0  0
    0.0126    3.5608   15.3321 C   0  0  0  0  0  0  0  0  0  0  0  0
    1.0533    3.6180   16.2994 C   0  0  0  0  0  0  0  0  0  0  0  0
    0.8097    4.2249   17.5680 C   0  0  0  0  0  0  0  0  0  0  0  0
   -0.4789    4.7482   17.8636 C   0  0  0  0  0  0  0  0  0  0  0  0
   -4.3865    4.1360   10.5438 C   0  0  0  0  0  0  0  0  0  0  0  0
   -3.0523    4.3321   10.9670 C   0  0  0  0  0  0  0  0  0  0  0  0
   -2.0143    4.2550   13.3080 C   0  0  0  0  0  0  0  0  0  0  0  0
   -2.3023    4.0366   14.6827 C   0  0  0  0  0  0  0  0  0  0  0  0
   -3.6356    3.7591   15.0922 C   0  0  0  0  0  0  0  0  0  0  0  0
   -4.6777    3.6981   14.1279 C   0  0  0  0  0  0  0  0  0  0  0  0
   -4.3824    3.9046   12.7440 C   0  0  0  0  0  0  0  0  0  0  0  0
   -3.0641    4.1798   12.3371 C   0  0  0  0  0  0  0  0  0  0  0  0
  1  6  1  0  0  0  0
  2  4  1  0  0  0  0
  3  7  1  0  0  0  0
  4  5  1  0  0  0  0
  6  2  1  0  0  0  0
  7  8  1  0  0  0  0
  8  9  1  0  0  0  0
  9 10  1  0  0  0  0
 10 11  1  0  0  0  0
 10 12  1  0  0  0  0
 11 13  1  0  0  0  0
 13 15  1  0  0  0  0
 14 12  1  0  0  0  0
 15 14  1  0  0  0  0
 16 18  2  0  0  0  0
 16 22  1  0  0  0  0
 17 23  1  0  0  0  0
 17 29  1  0  0  0  0
 18 19  1  0  0  0  0
 18 26  1  0  0  0  0
 19 20  2  0  0  0  0
 20  3  1  0  0  0  0
 20 21  1  0  0  0  0
 21  5  1  0  0  0  0
 21 22  2  0  0  0  0
 23 24  2  0  0  0  0
 24 30  1  0  0  0  0
 25 26  2  0  0  0  0
 25 30  1  0  0  0  0
 26 27  1  0  0  0  0
 27 28  2  0  0  0  0
 28 29  1  0  0  0  0
 29 30  2  0  0  0  0
M  END
>  <CHROM.1>
-59.95503764,54.24072468,-168.31164014,150.55498523,78.89618414,-132.89088149
-62.30674216,-77.23009860,141.38892273,-126.25252893,124.58577778,0.88516234
2.85078938,16.67844967,-0.07566686,-0.74029567,0.35775093

>  <Name>
1uts_lig

>  <RI>
0

>  <Rbt.Current_Directory>
/home/itssahil/PROJECTS/Mol_Feturizer/New_Systems/rnas/1uts

>  <Rbt.Executable>
rbdock ($Id: //depot/dev/client3/rdock/2013.1/src/exe/rbdock.cxx#4 $)

>  <Rbt.Library>
libRbt.so (2013.1, Build901 2013/11/27)

>  <Rbt.Parameter_File>
/export/apps/rDock/src/rDock_2013.1_src/data/scripts/dock_solv.prm

>  <Rbt.Receptor>
prm/pocket_docking_2.prm

>  <SCORE>
-18.3787

>  <SCORE.INTER>
-16.2873

>  <SCORE.INTER.CONST>
1

>  <SCORE.INTER.POLAR>
0

>  <SCORE.INTER.ROT>
10

>  <SCORE.INTER.SOLV>
9.01072

>  <SCORE.INTER.VDW>
-24.1285

>  <SCORE.INTER.norm>
-0.542912

>  <SCORE.INTRA>
-2.09489

>  <SCORE.INTRA.DIHEDRAL>
-3.06038

>  <SCORE.INTRA.DIHEDRAL.0>
18.0451

>  <SCORE.INTRA.POLAR>
-0.434734

>  <SCORE.INTRA.POLAR.0>
-0.196815

>  <SCORE.INTRA.REPUL>
0

>  <SCORE.INTRA.REPUL.0>
0

>  <SCORE.INTRA.SOLV>
0.106406

>  <SCORE.INTRA.SOLV.lig_0>
-14.7906

>  <SCORE.INTRA.VDW>
0.860201

>  <SCORE.INTRA.VDW.0>
-0.411701

>  <SCORE.INTRA.norm>
-0.0698295

>  <SCORE.RESTR>
0.00351852

>  <SCORE.RESTR.CAVITY>
0.00351852

>  <SCORE.RESTR.norm>
0.000117284

>  <SCORE.SYSTEM>
0

>  <SCORE.SYSTEM.CONST>
0

>  <SCORE.SYSTEM.DIHEDRAL>
0

>  <SCORE.SYSTEM.SOLV>
0

>  <SCORE.SYSTEM.norm>
0

>  <SCORE.heavy>
30

>  <SCORE.norm>
-0.612624

>  <RMSD>
1.549

$$$$
1uts_lig
 OpenBabel11021811413D
libRbt.so/2013.1/901 2013/11/27
 30 33  0  0  0  0  0  0  0  0999 V2000
    3.7905    6.0023   18.4944 N   0  0  0  0  0  0  0  0  0  0  0  0
    2.5708    4.7428   20.2158 C   0  0  0  0  0  0  0  0  0  0  0  0
    1.8442    3.5711   15.4515 C   0  0  0  0  0  0  0  0  0  0  0  0
    1.2607    4.7503   19.4228 C   0  0  0  0  0  0  0  0  0  0  0  0
    1.5470    4.9610   18.0323 O   0  0  0  0  0  0  0  0  0  0  0  0
    3.3607    6.0169   19.9109 C   0  0  0  0  0  0  0  0  0  0  0  0
    2.6673    3.0327   16.5581 N   0  0  0  0  0  0  0  0  0  0  0  0
    2.0443    1.7907   17.0874 C   0  0  0  0  0  0  0  0  0  0  0  0
    2.4763    1.5732   18.5405 C   0  0  0  0  0  0  0  0  0  0  0  0
    3.3960    0.4157   18.6131 N   0  0  0  0  0  0  0  0  0  0  0  0
    4.4959    0.5979   17.6228 C   0  0  0  0  0  0  0  0  0  0  0  0
    2.6391   -0.8355   18.3254 C   0  0  0  0  0  0  0  0  0  0  0  0
    5.4511   -0.6046   17.6925 C   0  0  0  0  0  0  0  0  0  0  0  0
    3.5954   -2.0399   18.3913 C   0  0  0  0  0  0  0  0  0  0  0  0
    4.6950   -1.8561   17.4037 N   0  0  0  0  0  0  0  0  0  0  0  0
   -2.0578    4.9241   16.9206 C   0  0  0  0  0  0  0  0  0  0  0  0
   -6.7204    3.5159   12.7779 N   0  0  0  0  0  0  0  0  0  0  0  0
   -1.9554    4.2758   15.6666 C   0  0  0  0  0  0  0  0  0  0  0  0
   -0.6878    3.8403   15.1963 C   0  0  0  0  0  0  0  0  0  0  0  0
    0.4782    4.0507   15.9825 C   0  0  0  0  0  0  0  0  0  0  0  0
    0.3749    4.7192   17.2393 C   0  0  0  0  0  0  0  0  0  0  0  0
   -0.8970    5.1502   17.7064 C   0  0  0  0  0  0  0  0  0  0  0  0
   -7.5975    3.5080   13.8862 C   0  0  0  0  0  0  0  0  0  0  0  0
   -6.8836    3.6601   15.0965 C   0  0  0  0  0  0  0  0  0  0  0  0
   -4.3767    3.9631   15.5302 C   0  0  0  0  0  0  0  0  0  0  0  0
   -3.1092    4.0732   14.8964 C   0  0  0  0  0  0  0  0  0  0  0  0
   -3.0146    3.9846   13.4803 C   0  0  0  0  0  0  0  0  0  0  0  0
   -4.1861    3.7884   12.7001 C   0  0  0  0  0  0  0  0  0  0  0  0
   -5.4615    3.6919   13.3396 C   0  0  0  0  0  0  0  0  0  0  0  0
   -5.5570    3.7788   14.7406 C   0  0  0  0  0  0  0  0  0  0  0  0
  1  6  1  0  0  0  0
  2  4  1  0  0  0  0
  3  7  1  0  0  0  0
  4  5  1  0  0  0  0
  6  2  1  0  0  0  0
  7  8  1  0  0  0  0
  8  9  1  0  0  0  0
  9 10  1  0  0  0  0
 10 11  1  0  0  0  0
 10 12  1  0  0  0  0
 11 13  1  0  0  0  0
 13 15  1  0  0  0  0
 14 12  1  0  0  0  0
 15 14  1  0  0  0  0
 16 18  2  0  0  0  0
 16 22  1  0  0  0  0
 17 23  1  0  0  0  0
 17 29  1  0  0  0  0
 18 19  1  0  0  0  0
 18 26  1  0  0  0  0
 19 20  2  0  0  0  0
 20  3  1  0  0  0  0
 20 21  1  0  0  0  0
 21  5  1  0  0  0  0
 21 22  2  0  0  0  0
 23 24  2  0  0  0  0
 24 30  1  0  0  0  0
 25 26  2  0  0  0  0
 25 30  1  0  0  0  0
 26 27  1  0  0  0  0
 27 28  2  0  0  0  0
 28 29  1  0  0  0  0
 29 30  2  0  0  0  0
M  END
>  <CHROM.1>
-65.78209203,53.46128113,66.55146515,169.00151364,-66.23594401,-155.10585171
-109.61023062,51.89994238,-27.05002362,-142.09180990,-140.37266669,0.01611557
3.05175203,16.64764587,-0.11435460,-0.48350405,0.30980916

>  <Name>
1uts_lig

>  <RI>
0

>  <Rbt.Current_Directory>
/home/itssahil/PROJECTS/Mol_Feturizer/New_Systems/rnas/1uts

>  <Rbt.Executable>
rbdock ($Id: //depot/dev/client3/rdock/2013.1/src/exe/rbdock.cxx#4 $)

>  <Rbt.Library>
libRbt.so (2013.1, Build901 2013/11/27)

>  <Rbt.Parameter_File>
/export/apps/rDock/src/rDock_2013.1_src/data/scripts/dock_solv.prm

>  <Rbt.Receptor>
prm/pocket_docking_2.prm

>  <SCORE>
-26.8953

>  <SCORE.INTER>
-25.6707

>  <SCORE.INTER.CONST>
1

>  <SCORE.INTER.POLAR>
-1.27335

>  <SCORE.INTER.ROT>
10

>  <SCORE.INTER.SOLV>
10.0396

>  <SCORE.INTER.VDW>
-26.4825

>  <SCORE.INTER.norm>
-0.85569

>  <SCORE.INTRA>
-1.41657

>  <SCORE.INTRA.DIHEDRAL>
-6.64949

>  <SCORE.INTRA.DIHEDRAL.0>
18.0451

>  <SCORE.INTRA.POLAR>
-1.1646

>  <SCORE.INTRA.POLAR.0>
-0.196815

>  <SCORE.INTRA.REPUL>
0

>  <SCORE.INTRA.REPUL.0>
0

>  <SCORE.INTRA.SOLV>
0.802796

>  <SCORE.INTRA.SOLV.lig_0>
-14.7906

>  <SCORE.INTRA.VDW>
5.46643

>  <SCORE.INTRA.VDW.0>
-0.411701

>  <SCORE.INTRA.norm>
-0.0472191

>  <SCORE.RESTR>
0.191979

>  <SCORE.RESTR.CAVITY>
0.191979

>  <SCORE.RESTR.norm>
0.00639929

>  <SCORE.SYSTEM>
0

>  <SCORE.SYSTEM.CONST>
0

>  <SCORE.SYSTEM.DIHEDRAL>
0

>  <SCORE.SYSTEM.SOLV>
0

>  <SCORE.SYSTEM.norm>
0

>  <SCORE.heavy>
30

>  <SCORE.norm>
-0.896509

>  <RMSD>
1.577

$$$$
1uts_lig
 OpenBabel11021811413D
libRbt.so/2013.1/901 2013/11/27
 30 33  0  0  0  0  0  0  0  0999 V2000
    2.5106    5.0406   22.2333 N   0  0  0  0  0  0  0  0  0  0  0  0
    1.7492    4.0838   20.1021 C   0  0  0  0  0  0  0  0  0  0  0  0
    2.7316    2.8861   15.8263 C   0  0  0  0  0  0  0  0  0  0  0  0
    2.3653    5.2665   19.3493 C   0  0  0  0  0  0  0  0  0  0  0  0
    2.6970    4.8601   18.0134 O   0  0  0  0  0  0  0  0  0  0  0  0
    1.3278    4.5323   21.5026 C   0  0  0  0  0  0  0  0  0  0  0  0
    3.2444    2.2017   17.0349 N   0  0  0  0  0  0  0  0  0  0  0  0
    4.4700    1.4324   16.6927 C   0  0  0  0  0  0  0  0  0  0  0  0
    4.1780   -0.0689   16.7716 C   0  0  0  0  0  0  0  0  0  0  0  0
    3.9392   -0.4508   18.1816 N   0  0  0  0  0  0  0  0  0  0  0  0
    5.2404   -0.4861   18.9093 C   0  0  0  0  0  0  0  0  0  0  0  0
    3.2816   -1.7874   18.2270 C   0  0  0  0  0  0  0  0  0  0  0  0
    4.9967   -0.8862   20.3735 C   0  0  0  0  0  0  0  0  0  0  0  0
    3.0405   -2.1908   19.6928 C   0  0  0  0  0  0  0  0  0  0  0  0
    4.3401   -2.2234   20.4195 N   0  0  0  0  0  0  0  0  0  0  0  0
   -0.8441    5.2398   16.7692 C   0  0  0  0  0  0  0  0  0  0  0  0
   -5.4101    3.6817   12.4498 N   0  0  0  0  0  0  0  0  0  0  0  0
   -0.8634    4.3143   15.6985 C   0  0  0  0  0  0  0  0  0  0  0  0
    0.2989    3.5552   15.3981 C   0  0  0  0  0  0  0  0  0  0  0  0
    1.4809    3.7196   16.1713 C   0  0  0  0  0  0  0  0  0  0  0  0
    1.5031    4.6652   17.2402 C   0  0  0  0  0  0  0  0  0  0  0  0
    0.3357    5.4201   17.5383 C   0  0  0  0  0  0  0  0  0  0  0  0
   -4.7711    3.9059   11.2091 C   0  0  0  0  0  0  0  0  0  0  0  0
   -3.3977    4.1853   11.3914 C   0  0  0  0  0  0  0  0  0  0  0  0
   -1.9859    4.3015   13.5262 C   0  0  0  0  0  0  0  0  0  0  0  0
   -2.0319    4.1588   14.9397 C   0  0  0  0  0  0  0  0  0  0  0  0
   -3.2631    3.8512   15.5814 C   0  0  0  0  0  0  0  0  0  0  0  0
   -4.4450    3.6847   14.8101 C   0  0  0  0  0  0  0  0  0  0  0  0
   -4.3928    3.8152   13.3870 C   0  0  0  0  0  0  0  0  0  0  0  0
   -3.1757    4.1200   12.7504 C   0  0  0  0  0  0  0  0  0  0  0  0
  1  6  1  0  0  0  0
  2  4  1  0  0  0  0
  3  7  1  0  0  0  0
  4  5  1  0  0  0  0
  6  2  1  0  0  0  0
  7  8  1  0  0  0  0
  8  9  1  0  0  0  0
  9 10  1  0  0  0  0
 10 11  1  0  0  0  0
 10 12  1  0  0  0  0
 11 13  1  0  0  0  0
 13 15  1  0  0  0  0
 14 12  1  0  0  0  0
 15 14  1  0  0  0  0
 16 18  2  0  0  0  0
 16 22  1  0  0  0  0
 17 23  1  0  0  0  0
 17 29  1  0  0  0  0
 18 19  1  0  0  0  0
 18 26  1  0  0  0  0
 19 20  2  0  0  0  0
 20  3  1  0  0  0  0
 20 21  1  0  0  0  0
 21  5  1  0  0  0  0
 21 22  2  0  0  0  0
 23 24  2  0  0  0  0
 24 30  1  0  0  0  0
 25 26  2  0  0  0  0
 25 30  1  0  0  0  0
 26 27  1  0  0  0  0
 27 28  2  0  0  0  0
 28 29  1  0  0  0  0
 29 30  2  0  0  0  0
M  END
>  <CHROM.1>
67.62517597,-177.08413069,-178.50113758,70.86109319,-59.19499480,-110.84542797
-68.08468165,-75.16167334,125.68911529,-128.41513582,-150.69398255,0.79611491
2.75344925,16.89858152,0.03286159,-0.76321304,0.59270664

>  <Name>
1uts_lig

>  <RI>
0

>  <Rbt.Current_Directory>
/home/itssahil/PROJECTS/Mol_Feturizer/New_Systems/rnas/1uts

>  <Rbt.Executable>
rbdock ($Id: //depot/dev/client3/rdock/2013.1/src/exe/rbdock.cxx#4 $)

>  <Rbt.Library>
libRbt.so (2013.1, Build901 2013/11/27)

>  <Rbt.Parameter_File>
/export/apps/rDock/src/rDock_2013.1_src/data/scripts/dock_solv.prm

>  <Rbt.Receptor>
prm/pocket_docking_2.prm

>  <SCORE>
-16.719

>  <SCORE.INTER>
-14.6466

>  <SCORE.INTER.CONST>
1

>  <SCORE.INTER.POLAR>
0

>  <SCORE.INTER.ROT>
10

>  <SCORE.INTER.SOLV>
9.35608

>  <SCORE.INTER.VDW>
-23.1498

>  <SCORE.INTER.norm>
-0.48822

>  <SCORE.INTRA>
-2.31669

>  <SCORE.INTRA.DIHEDRAL>
-8.03645

>  <SCORE.INTRA.DIHEDRAL.0>
18.0451

>  <SCORE.INTRA.POLAR>
-0.389554

>  <SCORE.INTRA.POLAR.0>
-0.196815

>  <SCORE.INTRA.REPUL>
0

>  <SCORE.INTRA.REPUL.0>
0

>  <SCORE.INTRA.SOLV>
-0.00223542

>  <SCORE.INTRA.SOLV.lig_0>
-14.7906

>  <SCORE.INTRA.VDW>
3.02714

>  <SCORE.INTRA.VDW.0>
-0.411701

>  <SCORE.INTRA.norm>
-0.077223

>  <SCORE.RESTR>
0.244312

>  <SCORE.RESTR.CAVITY>
0.244312

>  <SCORE.RESTR.norm>
0.00814373

>  <SCORE.SYSTEM>
0

>  <SCORE.SYSTEM.CONST>
0

>  <SCORE.SYSTEM.DIHEDRAL>
0

>  <SCORE.SYSTEM.SOLV>
0

>  <SCORE.SYSTEM.norm>
0

>  <SCORE.heavy>
30

>  <SCORE.norm>
-0.557299

>  <RMSD>
1.589

$$$$
1uts_lig
 OpenBabel11021811413D
libRbt.so/2013.1/901 2013/11/27
 30 33  0  0  0  0  0  0  0  0999 V2000
    3.7162    5.5099   19.9189 N   0  0  0  0  0  0  0  0  0  0  0  0
    4.0527    3.5792   18.4368 C   0  0  0  0  0  0  0  0  0  0  0  0
    0.9550    0.6708   16.4483 C   0  0  0  0  0  0  0  0  0  0  0  0
    2.6647    3.6931   17.7997 C   0  0  0  0  0  0  0  0  0  0  0  0
    2.6785    3.0597   16.5119 O   0  0  0  0  0  0  0  0  0  0  0  0
    3.9895    4.0552   19.8892 C   0  0  0  0  0  0  0  0  0  0  0  0
    2.4303    0.5469   16.4326 N   0  0  0  0  0  0  0  0  0  0  0  0
    2.9120    0.1274   17.7754 C   0  0  0  0  0  0  0  0  0  0  0  0
    4.3879   -0.2731   17.6943 C   0  0  0  0  0  0  0  0  0  0  0  0
    4.5138   -1.7340   17.8961 N   0  0  0  0  0  0  0  0  0  0  0  0
    3.8198   -2.1182   19.1589 C   0  0  0  0  0  0  0  0  0  0  0  0
    5.9566   -2.1012   17.9630 C   0  0  0  0  0  0  0  0  0  0  0  0
    3.9517   -3.6347   19.3738 C   0  0  0  0  0  0  0  0  0  0  0  0
    6.0898   -3.6190   18.1820 C   0  0  0  0  0  0  0  0  0  0  0  0
    5.3945   -4.0023   19.4421 N   0  0  0  0  0  0  0  0  0  0  0  0
   -0.3090    4.4891   14.7056 C   0  0  0  0  0  0  0  0  0  0  0  0
   -6.2695    3.7976   12.3305 N   0  0  0  0  0  0  0  0  0  0  0  0
   -1.1597    3.3599   14.6382 C   0  0  0  0  0  0  0  0  0  0  0  0
   -0.7437    2.1255   15.2045 C   0  0  0  0  0  0  0  0  0  0  0  0
    0.5232    2.0212   15.8417 C   0  0  0  0  0  0  0  0  0  0  0  0
    1.3862    3.1568   15.8941 C   0  0  0  0  0  0  0  0  0  0  0  0
    0.9632    4.3907   15.3282 C   0  0  0  0  0  0  0  0  0  0  0  0
   -7.0133    3.4984   13.4945 C   0  0  0  0  0  0  0  0  0  0  0  0
   -6.1568    3.2296   14.5862 C   0  0  0  0  0  0  0  0  0  0  0  0
   -3.5998    3.2420   14.7453 C   0  0  0  0  0  0  0  0  0  0  0  0
   -2.4067    3.4700   14.0071 C   0  0  0  0  0  0  0  0  0  0  0  0
   -2.4806    3.8166   12.6299 C   0  0  0  0  0  0  0  0  0  0  0  0
   -3.7456    3.9369   11.9936 C   0  0  0  0  0  0  0  0  0  0  0  0
   -4.9445    3.7205   12.7425 C   0  0  0  0  0  0  0  0  0  0  0  0
   -4.8733    3.3769   14.1049 C   0  0  0  0  0  0  0  0  0  0  0  0
  1  6  1  0  0  0  0
  2  4  1  0  0  0  0
  3  7  1  0  0  0  0
  4  5  1  0  0  0  0
  6  2  1  0  0  0  0
  7  8  1  0  0  0  0
  8  9  1  0  0  0  0
  9 10  1  0  0  0  0
 10 11  1  0  0  0  0
 10 12  1  0  0  0  0
 11 13  1  0  0  0  0
 13 15  1  0  0  0  0
 14 12  1  0  0  0  0
 15 14  1  0  0  0  0
 16 18  2  0  0  0  0
 16 22  1  0  0  0  0
 17 23  1  0  0  0  0
 17 29  1  0  0  0  0
 18 19  1  0  0  0  0
 18 26  1  0  0  0  0
 19 20  2  0  0  0  0
 20  3  1  0  0  0  0
 20 21  1  0  0  0  0
 21  5  1  0  0  0  0
 21 22  2  0  0  0  0
 23 24  2  0  0  0  0
 24 30  1  0  0  0  0
 25 26  2  0  0  0  0
 25 30  1  0  0  0  0
 26 27  1  0  0  0  0
 27 28  2  0  0  0  0
 28 29  1  0  0  0  0
 29 30  2  0  0  0  0
M  END
>  <CHROM.1>
-173.94993651,-171.25560600,130.70971674,-179.88692152,-67.28544776,168.68111819
-110.89856501,-52.98913523,-118.63470108,151.56415448,-104.49232771,0.75558904
1.76787845,16.29813058,-0.40397471,-0.54057915,0.06439244

>  <Name>
1uts_lig

>  <RI>
0

>  <Rbt.Current_Directory>
/home/itssahil/PROJECTS/Mol_Feturizer/New_Systems/rnas/1uts

>  <Rbt.Executable>
rbdock ($Id: //depot/dev/client3/rdock/2013.1/src/exe/rbdock.cxx#4 $)

>  <Rbt.Library>
libRbt.so (2013.1, Build901 2013/11/27)

>  <Rbt.Parameter_File>
/export/apps/rDock/src/rDock_2013.1_src/data/scripts/dock_solv.prm

>  <Rbt.Receptor>
prm/pocket_docking_2.prm

>  <SCORE>
-19.705

>  <SCORE.INTER>
-21.8897

>  <SCORE.INTER.CONST>
1

>  <SCORE.INTER.POLAR>
-0.8

>  <SCORE.INTER.ROT>
10

>  <SCORE.INTER.SOLV>
10.0193

>  <SCORE.INTER.VDW>
-25.5329

>  <SCORE.INTER.norm>
-0.729658

>  <SCORE.INTRA>
0.309898

>  <SCORE.INTRA.DIHEDRAL>
0.372534

>  <SCORE.INTRA.DIHEDRAL.0>
18.0451

>  <SCORE.INTRA.POLAR>
-0.600524

>  <SCORE.INTRA.POLAR.0>
-0.196815

>  <SCORE.INTRA.REPUL>
0

>  <SCORE.INTRA.REPUL.0>
0

>  <SCORE.INTRA.SOLV>
0.0313263

>  <SCORE.INTRA.SOLV.lig_0>
-14.7906

>  <SCORE.INTRA.VDW>
2.14975

>  <SCORE.INTRA.VDW.0>
-0.411701

>  <SCORE.INTRA.norm>
0.0103299

>  <SCORE.RESTR>
1.8748

>  <SCORE.RESTR.CAVITY>
1.8748

>  <SCORE.RESTR.norm>
0.0624933

>  <SCORE.SYSTEM>
0

>  <SCORE.SYSTEM.CONST>
0

>  <SCORE.SYSTEM.DIHEDRAL>
0

>  <SCORE.SYSTEM.SOLV>
0

>  <SCORE.SYSTEM.norm>
0

>  <SCORE.heavy>
30

>  <SCORE.norm>
-0.656835

>  <RMSD>
1.596

$$$$
1uts_lig
 OpenBabel11021811413D
libRbt.so/2013.1/901 2013/11/27
 30 33  0  0  0  0  0  0  0  0999 V2000
    4.4797    4.9012   22.0810 N   0  0  0  0  0  0  0  0  0  0  0  0
    3.4854    3.6027   20.2473 C   0  0  0  0  0  0  0  0  0  0  0  0
    2.4888    2.7649   16.2305 C   0  0  0  0  0  0  0  0  0  0  0  0
    2.2607    3.4787   19.3363 C   0  0  0  0  0  0  0  0  0  0  0  0
    2.1798    4.6333   18.4877 O   0  0  0  0  0  0  0  0  0  0  0  0
    3.3176    4.8127   21.1682 C   0  0  0  0  0  0  0  0  0  0  0  0
    2.1806    1.3188   16.3073 N   0  0  0  0  0  0  0  0  0  0  0  0
    3.4185    0.5591   16.6257 C   0  0  0  0  0  0  0  0  0  0  0  0
    3.6168    0.5050   18.1434 C   0  0  0  0  0  0  0  0  0  0  0  0
    4.6371   -0.5162   18.4707 N   0  0  0  0  0  0  0  0  0  0  0  0
    4.0759   -1.8734   18.2124 C   0  0  0  0  0  0  0  0  0  0  0  0
    5.0313   -0.3800   19.9014 C   0  0  0  0  0  0  0  0  0  0  0  0
    5.1317   -2.9370   18.5550 C   0  0  0  0  0  0  0  0  0  0  0  0
    6.0858   -1.4469   20.2466 C   0  0  0  0  0  0  0  0  0  0  0  0
    5.5254   -2.8021   19.9862 N   0  0  0  0  0  0  0  0  0  0  0  0
   -1.1619    5.1218   16.8066 C   0  0  0  0  0  0  0  0  0  0  0  0
   -5.1267    3.8366   11.8508 N   0  0  0  0  0  0  0  0  0  0  0  0
   -1.0462    4.2484   15.6988 C   0  0  0  0  0  0  0  0  0  0  0  0
    0.1398    3.4880   15.5178 C   0  0  0  0  0  0  0  0  0  0  0  0
    1.2099    3.5987   16.4475 C   0  0  0  0  0  0  0  0  0  0  0  0
    1.0976    4.4922   17.5549 C   0  0  0  0  0  0  0  0  0  0  0  0
   -0.0932    5.2486   17.7327 C   0  0  0  0  0  0  0  0  0  0  0  0
   -4.3288    4.1188   10.7188 C   0  0  0  0  0  0  0  0  0  0  0  0
   -2.9904    4.3734   11.0949 C   0  0  0  0  0  0  0  0  0  0  0  0
   -1.8722    4.3620   13.4001 C   0  0  0  0  0  0  0  0  0  0  0  0
   -2.1049    4.1456   14.7856 C   0  0  0  0  0  0  0  0  0  0  0  0
   -3.4112    3.8180   15.2423 C   0  0  0  0  0  0  0  0  0  0  0  0
   -4.4816    3.7050   14.3144 C   0  0  0  0  0  0  0  0  0  0  0  0
   -4.2415    3.9096   12.9196 C   0  0  0  0  0  0  0  0  0  0  0  0
   -2.9500    4.2343   12.4659 C   0  0  0  0  0  0  0  0  0  0  0  0
  1  6  1  0  0  0  0
  2  4  1  0  0  0  0
  3  7  1  0  0  0  0
  4  5  1  0  0  0  0
  6  2  1  0  0  0  0
  7  8  1  0  0  0  0
  8  9  1  0  0  0  0
  9 10  1  0  0  0  0
 10 11  1  0  0  0  0
 10 12  1  0  0  0  0
 11 13  1  0  0  0  0
 13 15  1  0  0  0  0
 14 12  1  0  0  0  0
 15 14  1  0  0  0  0
 16 18  2  0  0  0  0
 16 22  1  0  0  0  0
 17 23  1  0  0  0  0
 17 29  1  0  0  0  0
 18 19  1  0  0  0  0
 18 26  1  0  0  0  0
 19 20  2  0  0  0  0
 20  3  1  0  0  0  0
 20 21  1  0  0  0  0
 21  5  1  0  0  0  0
 21 22  2  0  0  0  0
 23 24  2  0  0  0  0
 24 30  1  0  0  0  0
 25 26  2  0  0  0  0
 25 30  1  0  0  0  0
 26 27  1  0  0  0  0
 27 28  2  0  0  0  0
 28 29  1  0  0  0  0
 29 30  2  0  0  0  0
M  END
>  <CHROM.1>
-178.17156198,63.44340969,-158.15656044,175.63611309,177.95494531,86.44477924
166.02442883,-70.43551658,125.33077665,-63.11903740,-73.82693052,1.06695301
2.55425416,16.83749648,0.00082886,-0.76162892,0.55598426

>  <Name>
1uts_lig

>  <RI>
0

>  <Rbt.Current_Directory>
/home/itssahil/PROJECTS/Mol_Feturizer/New_Systems/rnas/1uts

>  <Rbt.Executable>
rbdock ($Id: //depot/dev/client3/rdock/2013.1/src/exe/rbdock.cxx#4 $)

>  <Rbt.Library>
libRbt.so (2013.1, Build901 2013/11/27)

>  <Rbt.Parameter_File>
/export/apps/rDock/src/rDock_2013.1_src/data/scripts/dock_solv.prm

>  <Rbt.Receptor>
prm/pocket_docking_2.prm

>  <SCORE>
-18.5109

>  <SCORE.INTER>
-15.9015

>  <SCORE.INTER.CONST>
1

>  <SCORE.INTER.POLAR>
0

>  <SCORE.INTER.ROT>
10

>  <SCORE.INTER.SOLV>
9.33855

>  <SCORE.INTER.VDW>
-23.9805

>  <SCORE.INTER.norm>
-0.530049

>  <SCORE.INTRA>
-2.62764

>  <SCORE.INTRA.DIHEDRAL>
-6.02884

>  <SCORE.INTRA.DIHEDRAL.0>
18.0451

>  <SCORE.INTRA.POLAR>
0.196815

>  <SCORE.INTRA.POLAR.0>
-0.196815

>  <SCORE.INTRA.REPUL>
0

>  <SCORE.INTRA.REPUL.0>
0

>  <SCORE.INTRA.SOLV>
-0.498729

>  <SCORE.INTRA.SOLV.lig_0>
-14.7906

>  <SCORE.INTRA.VDW>
-0.0330252

>  <SCORE.INTRA.VDW.0>
-0.411701

>  <SCORE.INTRA.norm>
-0.087588

>  <SCORE.RESTR>
0.0181658

>  <SCORE.RESTR.CAVITY>
0.0181658

>  <SCORE.RESTR.norm>
0.000605527

>  <SCORE.SYSTEM>
0

>  <SCORE.SYSTEM.CONST>
0

>  <SCORE.SYSTEM.DIHEDRAL>
0

>  <SCORE.SYSTEM.SOLV>
0

>  <SCORE.SYSTEM.norm>
0

>  <SCORE.heavy>
30

>  <SCORE.norm>
-0.617031

>  <RMSD>
1.612

$$$$
1uts_lig
 OpenBabel11021811413D
libRbt.so/2013.1/901 2013/11/27
 30 33  0  0  0  0  0  0  0  0999 V2000
    4.4303    3.0564   20.9406 N   0  0  0  0  0  0  0  0  0  0  0  0
    3.0349    5.0768   20.8495 C   0  0  0  0  0  0  0  0  0  0  0  0
    2.7360    3.1696   16.2334 C   0  0  0  0  0  0  0  0  0  0  0  0
    1.9922    4.5658   19.8510 C   0  0  0  0  0  0  0  0  0  0  0  0
    2.3579    4.9805   18.5266 O   0  0  0  0  0  0  0  0  0  0  0  0
    4.4009    4.4743   20.5159 C   0  0  0  0  0  0  0  0  0  0  0  0
    3.2646    2.5960   17.4918 N   0  0  0  0  0  0  0  0  0  0  0  0
    4.2935    1.5686   17.1807 C   0  0  0  0  0  0  0  0  0  0  0  0
    3.6264    0.3414   16.5526 C   0  0  0  0  0  0  0  0  0  0  0  0
    4.2573   -0.8879   17.0833 N   0  0  0  0  0  0  0  0  0  0  0  0
    3.9152   -1.0328   18.5275 C   0  0  0  0  0  0  0  0  0  0  0  0
    5.7344   -0.8019   16.9048 C   0  0  0  0  0  0  0  0  0  0  0  0
    4.5720   -2.3068   19.0833 C   0  0  0  0  0  0  0  0  0  0  0  0
    6.3935   -2.0755   17.4644 C   0  0  0  0  0  0  0  0  0  0  0  0
    6.0494   -2.2208   18.9062 N   0  0  0  0  0  0  0  0  0  0  0  0
   -1.0534    5.2566   16.9397 C   0  0  0  0  0  0  0  0  0  0  0  0
   -5.0482    3.7499   12.0687 N   0  0  0  0  0  0  0  0  0  0  0  0
   -0.9067    4.4088   15.8158 C   0  0  0  0  0  0  0  0  0  0  0  0
    0.3241    3.7359   15.5926 C   0  0  0  0  0  0  0  0  0  0  0  0
    1.4084    3.9086   16.4962 C   0  0  0  0  0  0  0  0  0  0  0  0
    1.2636    4.7767   17.6199 C   0  0  0  0  0  0  0  0  0  0  0  0
    0.0282    5.4453   17.8399 C   0  0  0  0  0  0  0  0  0  0  0  0
   -4.2822    4.0202   10.9120 C   0  0  0  0  0  0  0  0  0  0  0  0
   -2.9452    4.3275   11.2519 C   0  0  0  0  0  0  0  0  0  0  0  0
   -1.7816    4.4237   13.5325 C   0  0  0  0  0  0  0  0  0  0  0  0
   -1.9797    4.2446   14.9286 C   0  0  0  0  0  0  0  0  0  0  0  0
   -3.2657    3.8919   15.4225 C   0  0  0  0  0  0  0  0  0  0  0  0
   -4.3504    3.7167   14.5212 C   0  0  0  0  0  0  0  0  0  0  0  0
   -4.1446    3.8840   13.1160 C   0  0  0  0  0  0  0  0  0  0  0  0
   -2.8731    4.2335   12.6255 C   0  0  0  0  0  0  0  0  0  0  0  0
  1  6  1  0  0  0  0
  2  4  1  0  0  0  0
  3  7  1  0  0  0  0
  4  5  1  0  0  0  0
  6  2  1  0  0  0  0
  7  8  1  0  0  0  0
  8  9  1  0  0  0  0
  9 10  1  0  0  0  0
 10 11  1  0  0  0  0
 10 12  1  0  0  0  0
 11 13  1  0  0  0  0
 13 15  1  0  0  0  0
 14 12  1  0  0  0  0
 15 14  1  0  0  0  0
 16 18  2  0  0  0  0
 16 22  1  0  0  0  0
 17 23  1  0  0  0  0
 17 29  1  0  0  0  0
 18 19  1  0  0  0  0
 18 26  1  0  0  0  0
 19 20  2  0  0  0  0
 20  3  1  0  0  0  0
 20 21  1  0  0  0  0
 21  5  1  0  0  0  0
 21 22  2  0  0  0  0
 23 24  2  0  0  0  0
 24 30  1  0  0  0  0
 25 26  2  0  0  0  0
 25 30  1  0  0  0  0
 26 27  1  0  0  0  0
 27 28  2  0  0  0  0
 28 29  1  0  0  0  0
 29 30  2  0  0  0  0
M  END
>  <CHROM.1>
-61.96249037,-61.37928508,163.26602534,-167.26642872,-74.99122941,-69.68850975
-140.14130351,68.28896149,128.81460183,-136.69596249,-119.70309877,1.23457407
2.72126030,16.62709455,0.01863038,-0.68626938,0.65964995

>  <Name>
1uts_lig

>  <RI>
0

>  <Rbt.Current_Directory>
/home/itssahil/PROJECTS/Mol_Feturizer/New_Systems/rnas/1uts

>  <Rbt.Executable>
rbdock ($Id: //depot/dev/client3/rdock/2013.1/src/exe/rbdock.cxx#4 $)

>  <Rbt.Library>
libRbt.so (2013.1, Build901 2013/11/27)

>  <Rbt.Parameter_File>
/export/apps/rDock/src/rDock_2013.1_src/data/scripts/dock_solv.prm

>  <Rbt.Receptor>
prm/pocket_docking_2.prm

>  <SCORE>
-20.9933

>  <SCORE.INTER>
-22.5157

>  <SCORE.INTER.CONST>
1

>  <SCORE.INTER.POLAR>
-0.8

>  <SCORE.INTER.ROT>
10

>  <SCORE.INTER.SOLV>
9.59923

>  <SCORE.INTER.VDW>
-25.8102

>  <SCORE.INTER.norm>
-0.750525

>  <SCORE.INTRA>
1.52136

>  <SCORE.INTRA.DIHEDRAL>
-4.02101

>  <SCORE.INTRA.DIHEDRAL.0>
18.0451

>  <SCORE.INTRA.POLAR>
-0.00421781

>  <SCORE.INTRA.POLAR.0>
-0.196815

>  <SCORE.INTRA.REPUL>
0

>  <SCORE.INTRA.REPUL.0>
0

>  <SCORE.INTRA.SOLV>
0.393242

>  <SCORE.INTRA.SOLV.lig_0>
-14.7906

>  <SCORE.INTRA.VDW>
3.34959

>  <SCORE.INTRA.VDW.0>
-0.411701

>  <SCORE.INTRA.norm>
0.0507122

>  <SCORE.RESTR>
0.00103695

>  <SCORE.RESTR.CAVITY>
0.00103695

>  <SCORE.RESTR.norm>
3.45649e-05

>  <SCORE.SYSTEM>
0

>  <SCORE.SYSTEM.CONST>
0

>  <SCORE.SYSTEM.DIHEDRAL>
0

>  <SCORE.SYSTEM.SOLV>
0

>  <SCORE.SYSTEM.norm>
0

>  <SCORE.heavy>
30

>  <SCORE.norm>
-0.699778

>  <RMSD>
1.619

$$$$
1uts_lig
 OpenBabel11021811413D
libRbt.so/2013.1/901 2013/11/27
 30 33  0  0  0  0  0  0  0  0999 V2000
    3.4966    6.1096   20.9378 N   0  0  0  0  0  0  0  0  0  0  0  0
    2.9768    3.7509   20.4866 C   0  0  0  0  0  0  0  0  0  0  0  0
    2.4975    2.5832   15.9038 C   0  0  0  0  0  0  0  0  0  0  0  0
    1.7765    4.0951   19.6001 C   0  0  0  0  0  0  0  0  0  0  0  0
    2.2279    4.3333   18.2587 O   0  0  0  0  0  0  0  0  0  0  0  0
    4.0321    4.8522   20.3690 C   0  0  0  0  0  0  0  0  0  0  0  0
    2.9673    1.9203   17.1416 N   0  0  0  0  0  0  0  0  0  0  0  0
    4.2519    1.2195   16.8778 C   0  0  0  0  0  0  0  0  0  0  0  0
    4.8114    0.6539   18.1864 C   0  0  0  0  0  0  0  0  0  0  0  0
    4.0034   -0.5141   18.6035 N   0  0  0  0  0  0  0  0  0  0  0  0
    4.1339   -0.7020   20.0771 C   0  0  0  0  0  0  0  0  0  0  0  0
    4.4787   -1.7274   17.8804 C   0  0  0  0  0  0  0  0  0  0  0  0
    3.2989   -1.9168   20.5135 C   0  0  0  0  0  0  0  0  0  0  0  0
    3.6457   -2.9452   18.3194 C   0  0  0  0  0  0  0  0  0  0  0  0
    3.7746   -3.1308   19.7915 N   0  0  0  0  0  0  0  0  0  0  0  0
   -1.1417    4.9061   16.6621 C   0  0  0  0  0  0  0  0  0  0  0  0
   -5.1904    3.8594   11.7156 N   0  0  0  0  0  0  0  0  0  0  0  0
   -1.0453    4.0908   15.5092 C   0  0  0  0  0  0  0  0  0  0  0  0
    0.1370    3.3410   15.2693 C   0  0  0  0  0  0  0  0  0  0  0  0
    1.2229    3.4044   16.1851 C   0  0  0  0  0  0  0  0  0  0  0  0
    1.1299    4.2399   17.3386 C   0  0  0  0  0  0  0  0  0  0  0  0
   -0.0572    4.9857   17.5752 C   0  0  0  0  0  0  0  0  0  0  0  0
   -4.3966    4.1113   10.5736 C   0  0  0  0  0  0  0  0  0  0  0  0
   -3.0438    4.3090   10.9322 C   0  0  0  0  0  0  0  0  0  0  0  0
   -1.8965    4.2448   13.2221 C   0  0  0  0  0  0  0  0  0  0  0  0
   -2.1194    4.0345   14.6101 C   0  0  0  0  0  0  0  0  0  0  0  0
   -3.4320    3.7603   15.0836 C   0  0  0  0  0  0  0  0  0  0  0  0
   -4.5185    3.6944   14.1700 C   0  0  0  0  0  0  0  0  0  0  0  0
   -4.2887    3.8926   12.7725 C   0  0  0  0  0  0  0  0  0  0  0  0
   -2.9910    4.1646   12.3022 C   0  0  0  0  0  0  0  0  0  0  0  0
  1  6  1  0  0  0  0
  2  4  1  0  0  0  0
  3  7  1  0  0  0  0
  4  5  1  0  0  0  0
  6  2  1  0  0  0  0
  7  8  1  0  0  0  0
  8  9  1  0  0  0  0
  9 10  1  0  0  0  0
 10 11  1  0  0  0  0
 10 12  1  0  0  0  0
 11 13  1  0  0  0  0
 13 15  1  0  0  0  0
 14 12  1  0  0  0  0
 15 14  1  0  0  0  0
 16 18  2  0  0  0  0
 16 22  1  0  0  0  0
 17 23  1  0  0  0  0
 17 29  1  0  0  0  0
 18 19  1  0  0  0  0
 18 26  1  0  0  0  0
 19 20  2  0  0  0  0
 20  3  1  0  0  0  0
 20 21  1  0  0  0  0
 21  5  1  0  0  0  0
 21 22  2  0  0  0  0
 23 24  2  0  0  0  0
 24 30  1  0  0  0  0
 25 26  2  0  0  0  0
 25 30  1  0  0  0  0
 26 27  1  0  0  0  0
 27 28  2  0  0  0  0
 28 29  1  0  0  0  0
 29 30  2  0  0  0  0
M  END
>  <CHROM.1>
178.90831625,54.26330626,-175.67662201,161.85669192,65.88119032,174.28994207
72.81361994,-155.97242790,129.00892534,-136.23638772,-128.43594601,0.85144659
2.58238918,16.71717543,-0.14230992,-0.78766071,0.33752962

>  <Name>
1uts_lig

>  <RI>
0

>  <Rbt.Current_Directory>
/home/itssahil/PROJECTS/Mol_Feturizer/New_Systems/rnas/1uts

>  <Rbt.Executable>
rbdock ($Id: //depot/dev/client3/rdock/2013.1/src/exe/rbdock.cxx#4 $)

>  <Rbt.Library>
libRbt.so (2013.1, Build901 2013/11/27)

>  <Rbt.Parameter_File>
/export/apps/rDock/src/rDock_2013.1_src/data/scripts/dock_solv.prm

>  <Rbt.Receptor>
prm/pocket_docking_2.prm

>  <SCORE>
-19.6797

>  <SCORE.INTER>
-15.1108

>  <SCORE.INTER.CONST>
1

>  <SCORE.INTER.POLAR>
0

>  <SCORE.INTER.ROT>
10

>  <SCORE.INTER.SOLV>
9.14499

>  <SCORE.INTER.VDW>
-23.3889

>  <SCORE.INTER.norm>
-0.503694

>  <SCORE.INTRA>
-4.57848

>  <SCORE.INTRA.DIHEDRAL>
-7.77591

>  <SCORE.INTRA.DIHEDRAL.0>
18.0451

>  <SCORE.INTRA.POLAR>
-0.250431

>  <SCORE.INTRA.POLAR.0>
-0.196815

>  <SCORE.INTRA.REPUL>
0

>  <SCORE.INTRA.REPUL.0>
0

>  <SCORE.INTRA.SOLV>
0.263288

>  <SCORE.INTRA.SOLV.lig_0>
-14.7906

>  <SCORE.INTRA.VDW>
0.0292936

>  <SCORE.INTRA.VDW.0>
-0.411701

>  <SCORE.INTRA.norm>
-0.152616

>  <SCORE.RESTR>
0.00961983

>  <SCORE.RESTR.CAVITY>
0.00961983

>  <SCORE.RESTR.norm>
0.000320661

>  <SCORE.SYSTEM>
0

>  <SCORE.SYSTEM.CONST>
0

>  <SCORE.SYSTEM.DIHEDRAL>
0

>  <SCORE.SYSTEM.SOLV>
0

>  <SCORE.SYSTEM.norm>
0

>  <SCORE.heavy>
30

>  <SCORE.norm>
-0.655989

>  <RMSD>
1.635

$$$$
1uts_lig
 OpenBabel11021811413D
libRbt.so/2013.1/901 2013/11/27
 30 33  0  0  0  0  0  0  0  0999 V2000
    4.5562    3.7846   19.1556 N   0  0  0  0  0  0  0  0  0  0  0  0
    2.3363    3.2140   20.0408 C   0  0  0  0  0  0  0  0  0  0  0  0
    2.6715    3.6941   15.8755 C   0  0  0  0  0  0  0  0  0  0  0  0
    1.7090    4.5816   19.7551 C   0  0  0  0  0  0  0  0  0  0  0  0
    2.0959    5.0183   18.4438 O   0  0  0  0  0  0  0  0  0  0  0  0
    3.8181    3.3911   20.3770 C   0  0  0  0  0  0  0  0  0  0  0  0
    3.0218    2.4772   16.6427 N   0  0  0  0  0  0  0  0  0  0  0  0
    2.0660    1.3863   16.3153 C   0  0  0  0  0  0  0  0  0  0  0  0
    2.7983    0.0412   16.3073 C   0  0  0  0  0  0  0  0  0  0  0  0
    3.2040   -0.3069   17.6876 N   0  0  0  0  0  0  0  0  0  0  0  0
    4.4189   -1.1705   17.6407 C   0  0  0  0  0  0  0  0  0  0  0  0
    2.0851   -1.0197   18.3665 C   0  0  0  0  0  0  0  0  0  0  0  0
    4.8410   -1.5374   19.0726 C   0  0  0  0  0  0  0  0  0  0  0  0
    2.5081   -1.3910   19.7993 C   0  0  0  0  0  0  0  0  0  0  0  0
    3.7228   -2.2514   19.7517 N   0  0  0  0  0  0  0  0  0  0  0  0
   -1.3555    5.0736   16.9218 C   0  0  0  0  0  0  0  0  0  0  0  0
   -5.2013    3.8153   11.8575 N   0  0  0  0  0  0  0  0  0  0  0  0
   -1.1171    4.4579   15.6698 C   0  0  0  0  0  0  0  0  0  0  0  0
    0.1903    4.0136   15.3369 C   0  0  0  0  0  0  0  0  0  0  0  0
    1.2599    4.1825   16.2585 C   0  0  0  0  0  0  0  0  0  0  0  0
    1.0206    4.8183   17.5138 C   0  0  0  0  0  0  0  0  0  0  0  0
   -0.2908    5.2582   17.8428 C   0  0  0  0  0  0  0  0  0  0  0  0
   -4.4251    4.1206   10.7164 C   0  0  0  0  0  0  0  0  0  0  0  0
   -3.0971    4.4404   11.0796 C   0  0  0  0  0  0  0  0  0  0  0  0
   -1.9636    4.5069   13.3762 C   0  0  0  0  0  0  0  0  0  0  0  0
   -2.1764    4.2962   14.7658 C   0  0  0  0  0  0  0  0  0  0  0  0
   -3.4631    3.9146   15.2360 C   0  0  0  0  0  0  0  0  0  0  0  0
   -4.5337    3.7420   14.3175 C   0  0  0  0  0  0  0  0  0  0  0  0
   -4.3129    3.9411   12.9187 C   0  0  0  0  0  0  0  0  0  0  0  0
   -3.0408    4.3193   12.4517 C   0  0  0  0  0  0  0  0  0  0  0  0
  1  6  1  0  0  0  0
  2  4  1  0  0  0  0
  3  7  1  0  0  0  0
  4  5  1  0  0  0  0
  6  2  1  0  0  0  0
  7  8  1  0  0  0  0
  8  9  1  0  0  0  0
  9 10  1  0  0  0  0
 10 11  1  0  0  0  0
 10 12  1  0  0  0  0
 11 13  1  0  0  0  0
 13 15  1  0  0  0  0
 14 12  1  0  0  0  0
 15 14  1  0  0  0  0
 16 18  2  0  0  0  0
 16 22  1  0  0  0  0
 17 23  1  0  0  0  0
 17 29  1  0  0  0  0
 18 19  1  0  0  0  0
 18 26  1  0  0  0  0
 19 20  2  0  0  0  0
 20  3  1  0  0  0  0
 20 21  1  0  0  0  0
 21  5  1  0  0  0  0
 21 22  2  0  0  0  0
 23 24  2  0  0  0  0
 24 30  1  0  0  0  0
 25 26  2  0  0  0  0
 25 30  1  0  0  0  0
 26 27  1  0  0  0  0
 27 28  2  0  0  0  0
 28 29  1  0  0  0  0
 29 30  2  0  0  0  0
M  END
>  <CHROM.1>
-79.79020902,76.57456183,61.68367490,102.26218461,-70.39725200,144.16506075
68.76459352,-152.34308932,140.20139534,-107.49023503,-131.63085758,0.61528467
2.73748163,16.50782190,-0.16998520,-0.76493435,0.32153321

>  <Name>
1uts_lig

>  <RI>
0

>  <Rbt.Current_Directory>
/home/itssahil/PROJECTS/Mol_Feturizer/New_Systems/rnas/1uts

>  <Rbt.Executable>
rbdock ($Id: //depot/dev/client3/rdock/2013.1/src/exe/rbdock.cxx#4 $)

>  <Rbt.Library>
libRbt.so (2013.1, Build901 2013/11/27)

>  <Rbt.Parameter_File>
/export/apps/rDock/src/rDock_2013.1_src/data/scripts/dock_solv.prm

>  <Rbt.Receptor>
prm/pocket_docking_2.prm

>  <SCORE>
-21.295

>  <SCORE.INTER>
-19.3976

>  <SCORE.INTER.CONST>
1

>  <SCORE.INTER.POLAR>
0

>  <SCORE.INTER.ROT>
10

>  <SCORE.INTER.SOLV>
9.94861

>  <SCORE.INTER.VDW>
-26.5146

>  <SCORE.INTER.norm>
-0.646587

>  <SCORE.INTRA>
-1.89738

>  <SCORE.INTRA.DIHEDRAL>
-0.504902

>  <SCORE.INTRA.DIHEDRAL.0>
18.0451

>  <SCORE.INTRA.POLAR>
-0.578939

>  <SCORE.INTRA.POLAR.0>
-0.196815

>  <SCORE.INTRA.REPUL>
0

>  <SCORE.INTRA.REPUL.0>
0

>  <SCORE.INTRA.SOLV>
0.855894

>  <SCORE.INTRA.SOLV.lig_0>
-14.7906

>  <SCORE.INTRA.VDW>
-0.104483

>  <SCORE.INTRA.VDW.0>
-0.411701

>  <SCORE.INTRA.norm>
-0.0632459

>  <SCORE.RESTR>
0

>  <SCORE.RESTR.CAVITY>
0

>  <SCORE.RESTR.norm>
0

>  <SCORE.SYSTEM>
0

>  <SCORE.SYSTEM.CONST>
0

>  <SCORE.SYSTEM.DIHEDRAL>
0

>  <SCORE.SYSTEM.SOLV>
0

>  <SCORE.SYSTEM.norm>
0

>  <SCORE.heavy>
30

>  <SCORE.norm>
-0.709833

>  <RMSD>
1.641

$$$$
1uts_lig
 OpenBabel11021811413D
libRbt.so/2013.1/901 2013/11/27
 30 33  0  0  0  0  0  0  0  0999 V2000
    3.7619    6.6246   19.1342 N   0  0  0  0  0  0  0  0  0  0  0  0
    1.3786    6.5867   19.7303 C   0  0  0  0  0  0  0  0  0  0  0  0
    2.4678    2.9314   16.1018 C   0  0  0  0  0  0  0  0  0  0  0  0
    1.4745    5.0583   19.7361 C   0  0  0  0  0  0  0  0  0  0  0  0
    1.9987    4.6093   18.4778 O   0  0  0  0  0  0  0  0  0  0  0  0
    2.7479    7.1865   20.0548 C   0  0  0  0  0  0  0  0  0  0  0  0
    2.2679    1.4648   16.0664 N   0  0  0  0  0  0  0  0  0  0  0  0
    1.9251    0.9730   17.4272 C   0  0  0  0  0  0  0  0  0  0  0  0
    1.9529   -0.5581   17.4467 C   0  0  0  0  0  0  0  0  0  0  0  0
    1.6724   -1.0384   18.8184 N   0  0  0  0  0  0  0  0  0  0  0  0
    2.8763   -0.8221   19.6716 C   0  0  0  0  0  0  0  0  0  0  0  0
    1.3205   -2.4858   18.7729 C   0  0  0  0  0  0  0  0  0  0  0  0
    2.5900   -1.3234   21.0964 C   0  0  0  0  0  0  0  0  0  0  0  0
    1.0373   -2.9898   20.1995 C   0  0  0  0  0  0  0  0  0  0  0  0
    2.2392   -2.7712   21.0516 N   0  0  0  0  0  0  0  0  0  0  0  0
   -1.3557    4.9622   16.7882 C   0  0  0  0  0  0  0  0  0  0  0  0
   -5.4988    3.7275   12.0696 N   0  0  0  0  0  0  0  0  0  0  0  0
   -1.1646    4.1794   15.6246 C   0  0  0  0  0  0  0  0  0  0  0  0
    0.0770    3.5244   15.4081 C   0  0  0  0  0  0  0  0  0  0  0  0
    1.1276    3.6499   16.3580 C   0  0  0  0  0  0  0  0  0  0  0  0
    0.9384    4.4530   17.5226 C   0  0  0  0  0  0  0  0  0  0  0  0
   -0.3077    5.1039   17.7356 C   0  0  0  0  0  0  0  0  0  0  0  0
   -6.5059    3.5438   13.0441 C   0  0  0  0  0  0  0  0  0  0  0  0
   -5.9549    3.5398   14.3456 C   0  0  0  0  0  0  0  0  0  0  0  0
   -3.5357    3.8349   15.1359 C   0  0  0  0  0  0  0  0  0  0  0  0
   -2.2046    4.0616   14.6918 C   0  0  0  0  0  0  0  0  0  0  0  0
   -1.9311    4.1754   13.3009 C   0  0  0  0  0  0  0  0  0  0  0  0
   -2.9876    4.0649   12.3569 C   0  0  0  0  0  0  0  0  0  0  0  0
   -4.3277    3.8507   12.8076 C   0  0  0  0  0  0  0  0  0  0  0  0
   -4.6001    3.7372   14.1832 C   0  0  0  0  0  0  0  0  0  0  0  0
  1  6  1  0  0  0  0
  2  4  1  0  0  0  0
  3  7  1  0  0  0  0
  4  5  1  0  0  0  0
  6  2  1  0  0  0  0
  7  8  1  0  0  0  0
  8  9  1  0  0  0  0
  9 10  1  0  0  0  0
 10 11  1  0  0  0  0
 10 12  1  0  0  0  0
 11 13  1  0  0  0  0
 13 15  1  0  0  0  0
 14 12  1  0  0  0  0
 15 14  1  0  0  0  0
 16 18  2  0  0  0  0
 16 22  1  0  0  0  0
 17 23  1  0  0  0  0
 17 29  1  0  0  0  0
 18 19  1  0  0  0  0
 18 26  1  0  0  0  0
 19 20  2  0  0  0  0
 20  3  1  0  0  0  0
 20 21  1  0  0  0  0
 21  5  1  0  0  0  0
 21 22  2  0  0  0  0
 23 24  2  0  0  0  0
 24 30  1  0  0  0  0
 25 26  2  0  0  0  0
 25 30  1  0  0  0  0
 26 27  1  0  0  0  0
 27 28  2  0  0  0  0
 28 29  1  0  0  0  0
 29 30  2  0  0  0  0
M  END
>  <CHROM.1>
12.30912914,-81.64122343,-69.05159151,-86.40500803,53.35615503,-170.38573757
177.40213896,-74.82924748,-43.99546805,-62.78107221,-160.85568726,-0.06605683
2.72753777,16.95807713,-0.49766369,-0.70476112,-0.11779637

>  <Name>
1uts_lig

>  <RI>
0

>  <Rbt.Current_Directory>
/home/itssahil/PROJECTS/Mol_Feturizer/New_Systems/rnas/1uts

>  <Rbt.Executable>
rbdock ($Id: //depot/dev/client3/rdock/2013.1/src/exe/rbdock.cxx#4 $)

>  <Rbt.Library>
libRbt.so (2013.1, Build901 2013/11/27)

>  <Rbt.Parameter_File>
/export/apps/rDock/src/rDock_2013.1_src/data/scripts/dock_solv.prm

>  <Rbt.Receptor>
prm/pocket_docking_3.prm

>  <SCORE>
-20.9944

>  <SCORE.INTER>
-22.2804

>  <SCORE.INTER.CONST>
1

>  <SCORE.INTER.POLAR>
-0.632456

>  <SCORE.INTER.ROT>
10

>  <SCORE.INTER.SOLV>
10.4971

>  <SCORE.INTER.VDW>
-26.5111

>  <SCORE.INTER.norm>
-0.742679

>  <SCORE.INTRA>
1.28313

>  <SCORE.INTRA.DIHEDRAL>
-5.55749

>  <SCORE.INTRA.DIHEDRAL.0>
18.0451

>  <SCORE.INTRA.POLAR>
-0.372201

>  <SCORE.INTRA.POLAR.0>
-0.196815

>  <SCORE.INTRA.REPUL>
0

>  <SCORE.INTRA.REPUL.0>
0

>  <SCORE.INTRA.SOLV>
-0.0461369

>  <SCORE.INTRA.SOLV.lig_0>
-14.7906

>  <SCORE.INTRA.VDW>
5.35042

>  <SCORE.INTRA.VDW.0>
-0.411701

>  <SCORE.INTRA.norm>
0.0427709

>  <SCORE.RESTR>
0.00278659

>  <SCORE.RESTR.CAVITY>
0.00278659

>  <SCORE.RESTR.norm>
9.28865e-05

>  <SCORE.SYSTEM>
0

>  <SCORE.SYSTEM.CONST>
0

>  <SCORE.SYSTEM.DIHEDRAL>
0

>  <SCORE.SYSTEM.SOLV>
0

>  <SCORE.SYSTEM.norm>
0

>  <SCORE.heavy>
30

>  <SCORE.norm>
-0.699815

>  <RMSD>
1.675

$$$$
1uts_lig
 OpenBabel11021811413D
libRbt.so/2013.1/901 2013/11/27
 30 33  0  0  0  0  0  0  0  0999 V2000
   -0.0246    3.2202   21.0412 N   0  0  0  0  0  0  0  0  0  0  0  0
    1.7436    4.3848   19.7943 C   0  0  0  0  0  0  0  0  0  0  0  0
    1.4614    1.4617   15.9793 C   0  0  0  0  0  0  0  0  0  0  0  0
    2.1214    4.9703   18.4307 C   0  0  0  0  0  0  0  0  0  0  0  0
    2.1429    3.9212   17.4515 O   0  0  0  0  0  0  0  0  0  0  0  0
    0.3327    3.7974   19.7257 C   0  0  0  0  0  0  0  0  0  0  0  0
    2.8598    1.8786   16.2299 N   0  0  0  0  0  0  0  0  0  0  0  0
    3.6892    0.6857   16.5462 C   0  0  0  0  0  0  0  0  0  0  0  0
    3.2268    0.0698   17.8700 C   0  0  0  0  0  0  0  0  0  0  0  0
    3.6420   -1.3499   17.9244 N   0  0  0  0  0  0  0  0  0  0  0  0
    2.5727   -2.1506   18.5873 C   0  0  0  0  0  0  0  0  0  0  0  0
    4.9207   -1.4622   18.6814 C   0  0  0  0  0  0  0  0  0  0  0  0
    3.0022   -3.6253   18.6491 C   0  0  0  0  0  0  0  0  0  0  0  0
    5.3498   -2.9390   18.7471 C   0  0  0  0  0  0  0  0  0  0  0  0
    4.2804   -3.7384   19.4072 N   0  0  0  0  0  0  0  0  0  0  0  0
   -1.2448    4.9073   16.1162 C   0  0  0  0  0  0  0  0  0  0  0  0
   -6.6222    3.6441   12.8504 N   0  0  0  0  0  0  0  0  0  0  0  0
   -1.6018    3.7508   15.3825 C   0  0  0  0  0  0  0  0  0  0  0  0
   -0.7200    2.6379   15.3420 C   0  0  0  0  0  0  0  0  0  0  0  0
    0.5189    2.6807   16.0385 C   0  0  0  0  0  0  0  0  0  0  0  0
    0.8842    3.8541   16.7643 C   0  0  0  0  0  0  0  0  0  0  0  0
   -0.0038    4.9638   16.8039 C   0  0  0  0  0  0  0  0  0  0  0  0
   -7.4057    3.5234   14.0205 C   0  0  0  0  0  0  0  0  0  0  0  0
   -6.5885    3.4674   15.1722 C   0  0  0  0  0  0  0  0  0  0  0  0
   -4.0409    3.5812   15.4196 C   0  0  0  0  0  0  0  0  0  0  0  0
   -2.8243    3.7165   14.6971 C   0  0  0  0  0  0  0  0  0  0  0  0
   -2.8500    3.8240   13.2793 C   0  0  0  0  0  0  0  0  0  0  0  0
   -4.0905    3.7985   12.5865 C   0  0  0  0  0  0  0  0  0  0  0  0
   -5.3137    3.6762   13.3172 C   0  0  0  0  0  0  0  0  0  0  0  0
   -5.2902    3.5691   14.7198 C   0  0  0  0  0  0  0  0  0  0  0  0
  1  6  1  0  0  0  0
  2  4  1  0  0  0  0
  3  7  1  0  0  0  0
  4  5  1  0  0  0  0
  6  2  1  0  0  0  0
  7  8  1  0  0  0  0
  8  9  1  0  0  0  0
  9 10  1  0  0  0  0
 10 11  1  0  0  0  0
 10 12  1  0  0  0  0
 11 13  1  0  0  0  0
 13 15  1  0  0  0  0
 14 12  1  0  0  0  0
 15 14  1  0  0  0  0
 16 18  2  0  0  0  0
 16 22  1  0  0  0  0
 17 23  1  0  0  0  0
 17 29  1  0  0  0  0
 18 19  1  0  0  0  0
 18 26  1  0  0  0  0
 19 20  2  0  0  0  0
 20  3  1  0  0  0  0
 20 21  1  0  0  0  0
 21  5  1  0  0  0  0
 21 22  2  0  0  0  0
 23 24  2  0  0  0  0
 24 30  1  0  0  0  0
 25 26  2  0  0  0  0
 25 30  1  0  0  0  0
 26 27  1  0  0  0  0
 27 28  2  0  0  0  0
 28 29  1  0  0  0  0
 29 30  2  0  0  0  0
M  END
>  <CHROM.1>
-57.23356875,-62.65258086,164.29439398,94.97568123,179.44032817,-65.60332647
157.72855352,-142.56203836,-73.29457753,155.51261824,-161.77710820,-0.02951506
2.06461171,16.70491224,-0.33702365,-0.57830200,0.28288541

>  <Name>
1uts_lig

>  <RI>
0

>  <Rbt.Current_Directory>
/home/itssahil/PROJECTS/Mol_Feturizer/New_Systems/rnas/1uts

>  <Rbt.Executable>
rbdock ($Id: //depot/dev/client3/rdock/2013.1/src/exe/rbdock.cxx#4 $)

>  <Rbt.Library>
libRbt.so (2013.1, Build901 2013/11/27)

>  <Rbt.Parameter_File>
/export/apps/rDock/src/rDock_2013.1_src/data/scripts/dock_solv.prm

>  <Rbt.Receptor>
prm/pocket_docking_2.prm

>  <SCORE>
-16.8904

>  <SCORE.INTER>
-18.8167

>  <SCORE.INTER.CONST>
1

>  <SCORE.INTER.POLAR>
-0.75468

>  <SCORE.INTER.ROT>
10

>  <SCORE.INTER.SOLV>
8.80955

>  <SCORE.INTER.VDW>
-23.232

>  <SCORE.INTER.norm>
-0.627222

>  <SCORE.INTRA>
1.08567

>  <SCORE.INTRA.DIHEDRAL>
-3.12021

>  <SCORE.INTRA.DIHEDRAL.0>
18.0451

>  <SCORE.INTRA.POLAR>
-0.502686

>  <SCORE.INTRA.POLAR.0>
-0.196815

>  <SCORE.INTRA.REPUL>
0

>  <SCORE.INTRA.REPUL.0>
0

>  <SCORE.INTRA.SOLV>
-0.136035

>  <SCORE.INTRA.SOLV.lig_0>
-14.7906

>  <SCORE.INTRA.VDW>
4.42293

>  <SCORE.INTRA.VDW.0>
-0.411701

>  <SCORE.INTRA.norm>
0.036189

>  <SCORE.RESTR>
0.840549

>  <SCORE.RESTR.CAVITY>
0.840549

>  <SCORE.RESTR.norm>
0.0280183

>  <SCORE.SYSTEM>
0

>  <SCORE.SYSTEM.CONST>
0

>  <SCORE.SYSTEM.DIHEDRAL>
0

>  <SCORE.SYSTEM.SOLV>
0

>  <SCORE.SYSTEM.norm>
0

>  <SCORE.heavy>
30

>  <SCORE.norm>
-0.563015

>  <RMSD>
1.678

$$$$
1uts_lig
 OpenBabel11021811413D
libRbt.so/2013.1/901 2013/11/27
 30 33  0  0  0  0  0  0  0  0999 V2000
    5.3798    5.1339   20.9828 N   0  0  0  0  0  0  0  0  0  0  0  0
    3.1898    5.8219   20.1067 C   0  0  0  0  0  0  0  0  0  0  0  0
    2.4561    2.8728   16.1197 C   0  0  0  0  0  0  0  0  0  0  0  0
    2.2593    5.7367   18.8934 C   0  0  0  0  0  0  0  0  0  0  0  0
    1.9645    4.3600   18.6152 O   0  0  0  0  0  0  0  0  0  0  0  0
    4.5289    5.1625   19.7718 C   0  0  0  0  0  0  0  0  0  0  0  0
    2.6160    1.6477   16.9357 N   0  0  0  0  0  0  0  0  0  0  0  0
    3.8520    0.9302   16.5251 C   0  0  0  0  0  0  0  0  0  0  0  0
    4.4490    0.1963   17.7294 C   0  0  0  0  0  0  0  0  0  0  0  0
    3.9483   -1.1963   17.7553 N   0  0  0  0  0  0  0  0  0  0  0  0
    2.5232   -1.1991   18.1948 C   0  0  0  0  0  0  0  0  0  0  0  0
    4.7822   -2.0040   18.6897 C   0  0  0  0  0  0  0  0  0  0  0  0
    2.0008   -2.6445   18.2267 C   0  0  0  0  0  0  0  0  0  0  0  0
    4.2576   -3.4507   18.7253 C   0  0  0  0  0  0  0  0  0  0  0  0
    2.8337   -3.4524   19.1620 N   0  0  0  0  0  0  0  0  0  0  0  0
   -1.3951    4.7924   16.9546 C   0  0  0  0  0  0  0  0  0  0  0  0
   -5.1885    3.8446   11.7856 N   0  0  0  0  0  0  0  0  0  0  0  0
   -1.1935    4.1024   15.7354 C   0  0  0  0  0  0  0  0  0  0  0  0
    0.0571    3.4830   15.4710 C   0  0  0  0  0  0  0  0  0  0  0  0
    1.1061    3.5511   16.4284 C   0  0  0  0  0  0  0  0  0  0  0  0
    0.9061    4.2614   17.6502 C   0  0  0  0  0  0  0  0  0  0  0  0
   -0.3489    4.8768   17.9107 C   0  0  0  0  0  0  0  0  0  0  0  0
   -4.3481    4.0701   10.6718 C   0  0  0  0  0  0  0  0  0  0  0  0
   -3.0086    4.2617   11.0802 C   0  0  0  0  0  0  0  0  0  0  0  0
   -1.9528    4.2256   13.4142 C   0  0  0  0  0  0  0  0  0  0  0  0
   -2.2320    4.0407   14.7956 C   0  0  0  0  0  0  0  0  0  0  0  0
   -3.5648    3.7863   15.2215 C   0  0  0  0  0  0  0  0  0  0  0  0
   -4.6151    3.7148   14.2669 C   0  0  0  0  0  0  0  0  0  0  0  0
   -4.3288    3.8875   12.8766 C   0  0  0  0  0  0  0  0  0  0  0  0
   -3.0110    4.1399   12.4534 C   0  0  0  0  0  0  0  0  0  0  0  0
  1  6  1  0  0  0  0
  2  4  1  0  0  0  0
  3  7  1  0  0  0  0
  4  5  1  0  0  0  0
  6  2  1  0  0  0  0
  7  8  1  0  0  0  0
  8  9  1  0  0  0  0
  9 10  1  0  0  0  0
 10 11  1  0  0  0  0
 10 12  1  0  0  0  0
 11 13  1  0  0  0  0
 13 15  1  0  0  0  0
 14 12  1  0  0  0  0
 15 14  1  0  0  0  0
 16 18  2  0  0  0  0
 16 22  1  0  0  0  0
 17 23  1  0  0  0  0
 17 29  1  0  0  0  0
 18 19  1  0  0  0  0
 18 26  1  0  0  0  0
 19 20  2  0  0  0  0
 20  3  1  0  0  0  0
 20 21  1  0  0  0  0
 21  5  1  0  0  0  0
 21 22  2  0  0  0  0
 23 24  2  0  0  0  0
 24 30  1  0  0  0  0
 25 26  2  0  0  0  0
 25 30  1  0  0  0  0
 26 27  1  0  0  0  0
 27 28  2  0  0  0  0
 28 29  1  0  0  0  0
 29 30  2  0  0  0  0
M  END
>  <CHROM.1>
-176.12294583,64.18949258,174.08787232,169.23851975,-174.78865559,148.82060527
93.58131774,-73.70432357,137.45926815,-107.11646496,122.83991032,0.76918501
2.54419391,16.57675787,-0.26096010,-0.71839182,0.20828997

>  <Name>
1uts_lig

>  <RI>
0

>  <Rbt.Current_Directory>
/home/itssahil/PROJECTS/Mol_Feturizer/New_Systems/rnas/1uts

>  <Rbt.Executable>
rbdock ($Id: //depot/dev/client3/rdock/2013.1/src/exe/rbdock.cxx#4 $)

>  <Rbt.Library>
libRbt.so (2013.1, Build901 2013/11/27)

>  <Rbt.Parameter_File>
/export/apps/rDock/src/rDock_2013.1_src/data/scripts/dock_solv.prm

>  <Rbt.Receptor>
prm/pocket_docking_2.prm

>  <SCORE>
-23.2499

>  <SCORE.INTER>
-21.8687

>  <SCORE.INTER.CONST>
1

>  <SCORE.INTER.POLAR>
-0.8

>  <SCORE.INTER.ROT>
10

>  <SCORE.INTER.SOLV>
8.56589

>  <SCORE.INTER.VDW>
-25.0344

>  <SCORE.INTER.norm>
-0.728956

>  <SCORE.INTRA>
-1.54446

>  <SCORE.INTRA.DIHEDRAL>
-5.25069

>  <SCORE.INTRA.DIHEDRAL.0>
18.0451

>  <SCORE.INTRA.POLAR>
0.196815

>  <SCORE.INTRA.POLAR.0>
-0.196815

>  <SCORE.INTRA.REPUL>
0

>  <SCORE.INTRA.REPUL.0>
0

>  <SCORE.INTRA.SOLV>
-0.301123

>  <SCORE.INTRA.SOLV.lig_0>
-14.7906

>  <SCORE.INTRA.VDW>
0.562275

>  <SCORE.INTRA.VDW.0>
-0.411701

>  <SCORE.INTRA.norm>
-0.051482

>  <SCORE.RESTR>
0.163295

>  <SCORE.RESTR.CAVITY>
0.163295

>  <SCORE.RESTR.norm>
0.00544318

>  <SCORE.SYSTEM>
0

>  <SCORE.SYSTEM.CONST>
0

>  <SCORE.SYSTEM.DIHEDRAL>
0

>  <SCORE.SYSTEM.SOLV>
0

>  <SCORE.SYSTEM.norm>
0

>  <SCORE.heavy>
30

>  <SCORE.norm>
-0.774995

>  <RMSD>
1.695

$$$$
1uts_lig
 OpenBabel11021811413D
libRbt.so/2013.1/901 2013/11/27
 30 33  0  0  0  0  0  0  0  0999 V2000
    4.5440    5.2341   22.0310 N   0  0  0  0  0  0  0  0  0  0  0  0
    3.5540    3.7081   20.3792 C   0  0  0  0  0  0  0  0  0  0  0  0
    2.6227    2.7766   16.2708 C   0  0  0  0  0  0  0  0  0  0  0  0
    2.3810    3.5357   19.4099 C   0  0  0  0  0  0  0  0  0  0  0  0
    2.3309    4.6592   18.5184 O   0  0  0  0  0  0  0  0  0  0  0  0
    3.3199    4.9432   21.2510 C   0  0  0  0  0  0  0  0  0  0  0  0
    2.3359    1.3377   16.4694 N   0  0  0  0  0  0  0  0  0  0  0  0
    3.5939    0.5546   16.3458 C   0  0  0  0  0  0  0  0  0  0  0  0
    4.0455    0.0785   17.7295 C   0  0  0  0  0  0  0  0  0  0  0  0
    3.7281   -1.3590   17.8838 N   0  0  0  0  0  0  0  0  0  0  0  0
    2.2801   -1.5117   18.2060 C   0  0  0  0  0  0  0  0  0  0  0  0
    4.5668   -1.9363   18.9720 C   0  0  0  0  0  0  0  0  0  0  0  0
    1.9474   -3.0034   18.3708 C   0  0  0  0  0  0  0  0  0  0  0  0
    4.2318   -3.4293   19.1404 C   0  0  0  0  0  0  0  0  0  0  0  0
    2.7850   -3.5811   19.4599 N   0  0  0  0  0  0  0  0  0  0  0  0
   -1.0206    5.1428   16.8555 C   0  0  0  0  0  0  0  0  0  0  0  0
   -5.0183    3.8269   11.9332 N   0  0  0  0  0  0  0  0  0  0  0  0
   -0.9132    4.2625   15.7523 C   0  0  0  0  0  0  0  0  0  0  0  0
    0.2703    3.4991   15.5685 C   0  0  0  0  0  0  0  0  0  0  0  0
    1.3465    3.6138   16.4908 C   0  0  0  0  0  0  0  0  0  0  0  0
    1.2426    4.5142   17.5934 C   0  0  0  0  0  0  0  0  0  0  0  0
    0.0541    5.2736   17.7740 C   0  0  0  0  0  0  0  0  0  0  0  0
   -4.2201    4.0630   10.7908 C   0  0  0  0  0  0  0  0  0  0  0  0
   -2.8754    4.3015   11.1545 C   0  0  0  0  0  0  0  0  0  0  0  0
   -1.7473    4.3303   13.4547 C   0  0  0  0  0  0  0  0  0  0  0  0
   -1.9779    4.1558   14.8464 C   0  0  0  0  0  0  0  0  0  0  0  0
   -3.2881    3.8661   15.3170 C   0  0  0  0  0  0  0  0  0  0  0  0
   -4.3647    3.7491   14.3968 C   0  0  0  0  0  0  0  0  0  0  0  0
   -4.1270    3.9114   12.9960 C   0  0  0  0  0  0  0  0  0  0  0  0
   -2.8315    4.1986   12.5286 C   0  0  0  0  0  0  0  0  0  0  0  0
  1  6  1  0  0  0  0
  2  4  1  0  0  0  0
  3  7  1  0  0  0  0
  4  5  1  0  0  0  0
  6  2  1  0  0  0  0
  7  8  1  0  0  0  0
  8  9  1  0  0  0  0
  9 10  1  0  0  0  0
 10 11  1  0  0  0  0
 10 12  1  0  0  0  0
 11 13  1  0  0  0  0
 13 15  1  0  0  0  0
 14 12  1  0  0  0  0
 15 14  1  0  0  0  0
 16 18  2  0  0  0  0
 16 22  1  0  0  0  0
 17 23  1  0  0  0  0
 17 29  1  0  0  0  0
 18 19  1  0  0  0  0
 18 26  1  0  0  0  0
 19 20  2  0  0  0  0
 20  3  1  0  0  0  0
 20 21  1  0  0  0  0
 21  5  1  0  0  0  0
 21 22  2  0  0  0  0
 23 24  2  0  0  0  0
 24 30  1  0  0  0  0
 25 26  2  0  0  0  0
 25 30  1  0  0  0  0
 26 27  1  0  0  0  0
 27 28  2  0  0  0  0
 28 29  1  0  0  0  0
 29 30  2  0  0  0  0
M  END
>  <CHROM.1>
-176.39247051,63.67086930,-176.14155131,179.60467790,-170.98117455,106.54230569
103.61287294,-79.04534709,126.90680571,-67.80910266,-76.22540558,0.78085783
2.39372854,16.74127838,-0.22967773,-0.79816156,0.28650456

>  <Name>
1uts_lig

>  <RI>
0

>  <Rbt.Current_Directory>
/home/itssahil/PROJECTS/Mol_Feturizer/New_Systems/rnas/1uts

>  <Rbt.Executable>
rbdock ($Id: //depot/dev/client3/rdock/2013.1/src/exe/rbdock.cxx#4 $)

>  <Rbt.Library>
libRbt.so (2013.1, Build901 2013/11/27)

>  <Rbt.Parameter_File>
/export/apps/rDock/src/rDock_2013.1_src/data/scripts/dock_solv.prm

>  <Rbt.Receptor>
prm/pocket_docking_2.prm

>  <SCORE>
-20.8598

>  <SCORE.INTER>
-20.6496

>  <SCORE.INTER.CONST>
1

>  <SCORE.INTER.POLAR>
-0.8

>  <SCORE.INTER.ROT>
10

>  <SCORE.INTER.SOLV>
9.09731

>  <SCORE.INTER.VDW>
-24.3988

>  <SCORE.INTER.norm>
-0.68832

>  <SCORE.INTRA>
-0.227299

>  <SCORE.INTRA.DIHEDRAL>
-0.708316

>  <SCORE.INTRA.DIHEDRAL.0>
18.0451

>  <SCORE.INTRA.POLAR>
0.196815

>  <SCORE.INTRA.POLAR.0>
-0.196815

>  <SCORE.INTRA.REPUL>
0

>  <SCORE.INTRA.REPUL.0>
0

>  <SCORE.INTRA.SOLV>
-0.381009

>  <SCORE.INTRA.SOLV.lig_0>
-14.7906

>  <SCORE.INTRA.VDW>
-0.351808

>  <SCORE.INTRA.VDW.0>
-0.411701

>  <SCORE.INTRA.norm>
-0.00757663

>  <SCORE.RESTR>
0.0171005

>  <SCORE.RESTR.CAVITY>
0.0171005

>  <SCORE.RESTR.norm>
0.000570017

>  <SCORE.SYSTEM>
0

>  <SCORE.SYSTEM.CONST>
0

>  <SCORE.SYSTEM.DIHEDRAL>
0

>  <SCORE.SYSTEM.SOLV>
0

>  <SCORE.SYSTEM.norm>
0

>  <SCORE.heavy>
30

>  <SCORE.norm>
-0.695327

>  <RMSD>
1.718

$$$$
1uts_lig
 OpenBabel11021811413D
libRbt.so/2013.1/901 2013/11/27
 30 33  0  0  0  0  0  0  0  0999 V2000
    4.2297    5.4852   22.0901 N   0  0  0  0  0  0  0  0  0  0  0  0
    3.2648    6.0722   19.9079 C   0  0  0  0  0  0  0  0  0  0  0  0
    2.4503    4.1954   16.1626 C   0  0  0  0  0  0  0  0  0  0  0  0
    2.0005    5.9898   19.0478 C   0  0  0  0  0  0  0  0  0  0  0  0
    1.5823    4.6207   18.9459 O   0  0  0  0  0  0  0  0  0  0  0  0
    2.9893    5.4596   21.2823 C   0  0  0  0  0  0  0  0  0  0  0  0
    2.8333    2.7948   15.8732 N   0  0  0  0  0  0  0  0  0  0  0  0
    2.8619    2.0120   17.1371 C   0  0  0  0  0  0  0  0  0  0  0  0
    3.0238    0.5225   16.8201 C   0  0  0  0  0  0  0  0  0  0  0  0
    3.1220   -0.2422   18.0836 N   0  0  0  0  0  0  0  0  0  0  0  0
    4.4881   -0.0726   18.6569 C   0  0  0  0  0  0  0  0  0  0  0  0
    2.8466   -1.6816   17.8128 C   0  0  0  0  0  0  0  0  0  0  0  0
    4.5951   -0.8687   19.9676 C   0  0  0  0  0  0  0  0  0  0  0  0
    2.9571   -2.4804   19.1240 C   0  0  0  0  0  0  0  0  0  0  0  0
    4.3210   -2.3085   19.6972 N   0  0  0  0  0  0  0  0  0  0  0  0
   -1.7873    4.4176   17.2618 C   0  0  0  0  0  0  0  0  0  0  0  0
   -5.2121    3.7950   11.7876 N   0  0  0  0  0  0  0  0  0  0  0  0
   -1.4117    4.2301   15.9101 C   0  0  0  0  0  0  0  0  0  0  0  0
   -0.0367    4.1595   15.5607 C   0  0  0  0  0  0  0  0  0  0  0  0
    0.9636    4.2734   16.5648 C   0  0  0  0  0  0  0  0  0  0  0  0
    0.5830    4.4787   17.9250 C   0  0  0  0  0  0  0  0  0  0  0  0
   -0.7950    4.5455   18.2692 C   0  0  0  0  0  0  0  0  0  0  0  0
   -4.3442    4.1058   10.7161 C   0  0  0  0  0  0  0  0  0  0  0  0
   -3.0395    4.3793   11.1858 C   0  0  0  0  0  0  0  0  0  0  0  0
   -2.0811    4.3583   13.5617 C   0  0  0  0  0  0  0  0  0  0  0  0
   -2.4036    4.1202   14.9254 C   0  0  0  0  0  0  0  0  0  0  0  0
   -3.7316    3.7637   15.2880 C   0  0  0  0  0  0  0  0  0  0  0  0
   -4.7340    3.6435   14.2878 C   0  0  0  0  0  0  0  0  0  0  0  0
   -4.4033    3.8701   12.9151 C   0  0  0  0  0  0  0  0  0  0  0  0
   -3.0901    4.2235   12.5546 C   0  0  0  0  0  0  0  0  0  0  0  0
  1  6  1  0  0  0  0
  2  4  1  0  0  0  0
  3  7  1  0  0  0  0
  4  5  1  0  0  0  0
  6  2  1  0  0  0  0
  7  8  1  0  0  0  0
  8  9  1  0  0  0  0
  9 10  1  0  0  0  0
 10 11  1  0  0  0  0
 10 12  1  0  0  0  0
 11 13  1  0  0  0  0
 13 15  1  0  0  0  0
 14 12  1  0  0  0  0
 15 14  1  0  0  0  0
 16 18  2  0  0  0  0
 16 22  1  0  0  0  0
 17 23  1  0  0  0  0
 17 29  1  0  0  0  0
 18 19  1  0  0  0  0
 18 26  1  0  0  0  0
 19 20  2  0  0  0  0
 20  3  1  0  0  0  0
 20 21  1  0  0  0  0
 21  5  1  0  0  0  0
 21 22  2  0  0  0  0
 23 24  2  0  0  0  0
 24 30  1  0  0  0  0
 25 26  2  0  0  0  0
 25 30  1  0  0  0  0
 26 27  1  0  0  0  0
 27 28  2  0  0  0  0
 28 29  1  0  0  0  0
 29 30  2  0  0  0  0
M  END
>  <CHROM.1>
67.06099954,-57.19731831,-70.55701253,-167.66043516,177.46934496,170.51368938
177.08896360,-76.80315458,159.93665123,-75.65871485,86.54031172,0.57721723
2.99569647,16.78462566,-0.02540219,-0.76690964,0.38689685

>  <Name>
1uts_lig

>  <RI>
0

>  <Rbt.Current_Directory>
/home/itssahil/PROJECTS/Mol_Feturizer/New_Systems/rnas/1uts

>  <Rbt.Executable>
rbdock ($Id: //depot/dev/client3/rdock/2013.1/src/exe/rbdock.cxx#4 $)

>  <Rbt.Library>
libRbt.so (2013.1, Build901 2013/11/27)

>  <Rbt.Parameter_File>
/export/apps/rDock/src/rDock_2013.1_src/data/scripts/dock_solv.prm

>  <Rbt.Receptor>
prm/pocket_docking_2.prm

>  <SCORE>
-21.5564

>  <SCORE.INTER>
-17.9903

>  <SCORE.INTER.CONST>
1

>  <SCORE.INTER.POLAR>
0

>  <SCORE.INTER.ROT>
10

>  <SCORE.INTER.SOLV>
9.30522

>  <SCORE.INTER.VDW>
-25.3619

>  <SCORE.INTER.norm>
-0.599677

>  <SCORE.INTRA>
-3.58293

>  <SCORE.INTRA.DIHEDRAL>
-9.8769

>  <SCORE.INTRA.DIHEDRAL.0>
18.0451

>  <SCORE.INTRA.POLAR>
0.196815

>  <SCORE.INTRA.POLAR.0>
-0.196815

>  <SCORE.INTRA.REPUL>
0

>  <SCORE.INTRA.REPUL.0>
0

>  <SCORE.INTRA.SOLV>
-0.517862

>  <SCORE.INTRA.SOLV.lig_0>
-14.7906

>  <SCORE.INTRA.VDW>
0.945282

>  <SCORE.INTRA.VDW.0>
-0.411701

>  <SCORE.INTRA.norm>
-0.119431

>  <SCORE.RESTR>
0.0168291

>  <SCORE.RESTR.CAVITY>
0.0168291

>  <SCORE.RESTR.norm>
0.00056097

>  <SCORE.SYSTEM>
0

>  <SCORE.SYSTEM.CONST>
0

>  <SCORE.SYSTEM.DIHEDRAL>
0

>  <SCORE.SYSTEM.SOLV>
0

>  <SCORE.SYSTEM.norm>
0

>  <SCORE.heavy>
30

>  <SCORE.norm>
-0.718547

>  <RMSD>
1.724

$$$$
1uts_lig
 OpenBabel11021811413D
libRbt.so/2013.1/901 2013/11/27
 30 33  0  0  0  0  0  0  0  0999 V2000
    2.7443    3.7744   20.7191 N   0  0  0  0  0  0  0  0  0  0  0  0
    3.1884    6.0302   19.8523 C   0  0  0  0  0  0  0  0  0  0  0  0
    2.3567    2.8216   16.0017 C   0  0  0  0  0  0  0  0  0  0  0  0
    2.0789    5.9268   18.8019 C   0  0  0  0  0  0  0  0  0  0  0  0
    1.9823    4.5703   18.3432 O   0  0  0  0  0  0  0  0  0  0  0  0
    2.8051    5.2078   21.0839 C   0  0  0  0  0  0  0  0  0  0  0  0
    2.7828    2.1174   17.2324 N   0  0  0  0  0  0  0  0  0  0  0  0
    4.1396    1.5417   17.0358 C   0  0  0  0  0  0  0  0  0  0  0  0
    4.7871    1.2657   18.3960 C   0  0  0  0  0  0  0  0  0  0  0  0
    4.7163   -0.1832   18.6903 N   0  0  0  0  0  0  0  0  0  0  0  0
    5.5043   -0.9320   17.6694 C   0  0  0  0  0  0  0  0  0  0  0  0
    3.2923   -0.6221   18.6727 C   0  0  0  0  0  0  0  0  0  0  0  0
    5.4300   -2.4378   17.9696 C   0  0  0  0  0  0  0  0  0  0  0  0
    3.2169   -2.1306   18.9695 C   0  0  0  0  0  0  0  0  0  0  0  0
    4.0060   -2.8776   17.9510 N   0  0  0  0  0  0  0  0  0  0  0  0
   -1.3718    5.0253   16.6776 C   0  0  0  0  0  0  0  0  0  0  0  0
   -5.2845    3.8367   11.6558 N   0  0  0  0  0  0  0  0  0  0  0  0
   -1.2254    4.2094   15.5303 C   0  0  0  0  0  0  0  0  0  0  0  0
   -0.0144    3.4984   15.3172 C   0  0  0  0  0  0  0  0  0  0  0  0
    1.0503    3.6010   16.2541 C   0  0  0  0  0  0  0  0  0  0  0  0
    0.9066    4.4371   17.4019 C   0  0  0  0  0  0  0  0  0  0  0  0
   -0.3090    5.1441   17.6116 C   0  0  0  0  0  0  0  0  0  0  0  0
   -4.4877    4.1652   10.5355 C   0  0  0  0  0  0  0  0  0  0  0  0
   -3.1553    4.4323   10.9241 C   0  0  0  0  0  0  0  0  0  0  0  0
   -2.0453    4.3743   13.2325 C   0  0  0  0  0  0  0  0  0  0  0  0
   -2.2789    4.1143   14.6102 C   0  0  0  0  0  0  0  0  0  0  0  0
   -3.5808    3.7509   15.0522 C   0  0  0  0  0  0  0  0  0  0  0  0
   -4.6458    3.6458   14.1172 C   0  0  0  0  0  0  0  0  0  0  0  0
   -4.4045    3.8945   12.7297 C   0  0  0  0  0  0  0  0  0  0  0  0
   -3.1173    4.2547   12.2907 C   0  0  0  0  0  0  0  0  0  0  0  0
  1  6  1  0  0  0  0
  2  4  1  0  0  0  0
  3  7  1  0  0  0  0
  4  5  1  0  0  0  0
  6  2  1  0  0  0  0
  7  8  1  0  0  0  0
  8  9  1  0  0  0  0
  9 10  1  0  0  0  0
 10 11  1  0  0  0  0
 10 12  1  0  0  0  0
 11 13  1  0  0  0  0
 13 15  1  0  0  0  0
 14 12  1  0  0  0  0
 15 14  1  0  0  0  0
 16 18  2  0  0  0  0
 16 22  1  0  0  0  0
 17 23  1  0  0  0  0
 17 29  1  0  0  0  0
 18 19  1  0  0  0  0
 18 26  1  0  0  0  0
 19 20  2  0  0  0  0
 20  3  1  0  0  0  0
 20 21  1  0  0  0  0
 21  5  1  0  0  0  0
 21 22  2  0  0  0  0
 23 24  2  0  0  0  0
 24 30  1  0  0  0  0
 25 26  2  0  0  0  0
 25 30  1  0  0  0  0
 26 27  1  0  0  0  0
 27 28  2  0  0  0  0
 28 29  1  0  0  0  0
 29 30  2  0  0  0  0
M  END
>  <CHROM.1>
63.56610043,-64.79248163,-171.56146279,177.35947661,65.02067765,159.82595107
102.79511410,63.00838924,126.72909560,-133.08838584,140.94542923,0.79920625
2.79185067,16.51637765,-0.03597728,-0.73017820,0.51533227

>  <Name>
1uts_lig

>  <RI>
0

>  <Rbt.Current_Directory>
/home/itssahil/PROJECTS/Mol_Feturizer/New_Systems/rnas/1uts

>  <Rbt.Executable>
rbdock ($Id: //depot/dev/client3/rdock/2013.1/src/exe/rbdock.cxx#4 $)

>  <Rbt.Library>
libRbt.so (2013.1, Build901 2013/11/27)

>  <Rbt.Parameter_File>
/export/apps/rDock/src/rDock_2013.1_src/data/scripts/dock_solv.prm

>  <Rbt.Receptor>
prm/pocket_docking_2.prm

>  <SCORE>
-24.1394

>  <SCORE.INTER>
-21.5403

>  <SCORE.INTER.CONST>
1

>  <SCORE.INTER.POLAR>
-0.8

>  <SCORE.INTER.ROT>
10

>  <SCORE.INTER.SOLV>
9.31605

>  <SCORE.INTER.VDW>
-25.0656

>  <SCORE.INTER.norm>
-0.718011

>  <SCORE.INTRA>
-2.78608

>  <SCORE.INTRA.DIHEDRAL>
-6.51471

>  <SCORE.INTRA.DIHEDRAL.0>
18.0451

>  <SCORE.INTRA.POLAR>
-1.05909

>  <SCORE.INTRA.POLAR.0>
-0.196815

>  <SCORE.INTRA.REPUL>
0

>  <SCORE.INTRA.REPUL.0>
0

>  <SCORE.INTRA.SOLV>
0.656589

>  <SCORE.INTRA.SOLV.lig_0>
-14.7906

>  <SCORE.INTRA.VDW>
3.74387

>  <SCORE.INTRA.VDW.0>
-0.411701

>  <SCORE.INTRA.norm>
-0.0928694

>  <SCORE.RESTR>
0.18707

>  <SCORE.RESTR.CAVITY>
0.18707

>  <SCORE.RESTR.norm>
0.00623567

>  <SCORE.SYSTEM>
0

>  <SCORE.SYSTEM.CONST>
0

>  <SCORE.SYSTEM.DIHEDRAL>
0

>  <SCORE.SYSTEM.SOLV>
0

>  <SCORE.SYSTEM.norm>
0

>  <SCORE.heavy>
30

>  <SCORE.norm>
-0.804645

>  <RMSD>
1.741

$$$$
1uts_lig
 OpenBabel11021811413D
libRbt.so/2013.1/901 2013/11/27
 30 33  0  0  0  0  0  0  0  0999 V2000
    5.5535    2.9670   20.5753 N   0  0  0  0  0  0  0  0  0  0  0  0
    3.1756    3.5295   20.3177 C   0  0  0  0  0  0  0  0  0  0  0  0
    2.3644    2.3082   16.0306 C   0  0  0  0  0  0  0  0  0  0  0  0
    1.9744    3.4381   19.3722 C   0  0  0  0  0  0  0  0  0  0  0  0
    2.2074    4.2683   18.2249 O   0  0  0  0  0  0  0  0  0  0  0  0
    4.4089    2.9327   19.6372 C   0  0  0  0  0  0  0  0  0  0  0  0
    2.1555    1.0239   16.7370 N   0  0  0  0  0  0  0  0  0  0  0  0
    3.4372    0.2727   16.8000 C   0  0  0  0  0  0  0  0  0  0  0  0
    3.4132   -0.6936   17.9879 C   0  0  0  0  0  0  0  0  0  0  0  0
    2.8257   -1.9836   17.5617 N   0  0  0  0  0  0  0  0  0  0  0  0
    1.3389   -1.8683   17.5522 C   0  0  0  0  0  0  0  0  0  0  0  0
    3.2580   -3.0576   18.5002 C   0  0  0  0  0  0  0  0  0  0  0  0
    0.7250   -3.2077   17.1136 C   0  0  0  0  0  0  0  0  0  0  0  0
    2.6408   -4.3986   18.0642 C   0  0  0  0  0  0  0  0  0  0  0  0
    1.1560   -4.2820   18.0526 N   0  0  0  0  0  0  0  0  0  0  0  0
   -1.1110    4.9275   16.5558 C   0  0  0  0  0  0  0  0  0  0  0  0
   -5.5263    3.7836   12.0589 N   0  0  0  0  0  0  0  0  0  0  0  0
   -1.0668    4.0115   15.4777 C   0  0  0  0  0  0  0  0  0  0  0  0
    0.0626    3.1660   15.3131 C   0  0  0  0  0  0  0  0  0  0  0  0
    1.1477    3.2345   16.2296 C   0  0  0  0  0  0  0  0  0  0  0  0
    1.1082    4.1703   17.3065 C   0  0  0  0  0  0  0  0  0  0  0  0
   -0.0263    5.0120   17.4681 C   0  0  0  0  0  0  0  0  0  0  0  0
   -6.5033    3.5778   13.0593 C   0  0  0  0  0  0  0  0  0  0  0  0
   -5.9088    3.5103   14.3398 C   0  0  0  0  0  0  0  0  0  0  0  0
   -3.4591    3.7295   15.0575 C   0  0  0  0  0  0  0  0  0  0  0  0
   -2.1397    3.9507   14.5773 C   0  0  0  0  0  0  0  0  0  0  0  0
   -1.9111    4.1170   13.1837 C   0  0  0  0  0  0  0  0  0  0  0  0
   -3.0008    4.0643   12.2729 C   0  0  0  0  0  0  0  0  0  0  0  0
   -4.3288    3.8555   12.7605 C   0  0  0  0  0  0  0  0  0  0  0  0
   -4.5568    3.6902   14.1389 C   0  0  0  0  0  0  0  0  0  0  0  0
  1  6  1  0  0  0  0
  2  4  1  0  0  0  0
  3  7  1  0  0  0  0
  4  5  1  0  0  0  0
  6  2  1  0  0  0  0
  7  8  1  0  0  0  0
  8  9  1  0  0  0  0
  9 10  1  0  0  0  0
 10 11  1  0  0  0  0
 10 12  1  0  0  0  0
 11 13  1  0  0  0  0
 13 15  1  0  0  0  0
 14 12  1  0  0  0  0
 15 14  1  0  0  0  0
 16 18  2  0  0  0  0
 16 22  1  0  0  0  0
 17 23  1  0  0  0  0
 17 29  1  0  0  0  0
 18 19  1  0  0  0  0
 18 26  1  0  0  0  0
 19 20  2  0  0  0  0
 20  3  1  0  0  0  0
 20 21  1  0  0  0  0
 21  5  1  0  0  0  0
 21 22  2  0  0  0  0
 23 24  2  0  0  0  0
 24 30  1  0  0  0  0
 25 26  2  0  0  0  0
 25 30  1  0  0  0  0
 26 27  1  0  0  0  0
 27 28  2  0  0  0  0
 28 29  1  0  0  0  0
 29 30  2  0  0  0  0
M  END
>  <CHROM.1>
62.18946820,-65.28344858,-167.23039087,178.46419237,-177.48079860,155.40477555
88.28354621,-80.42796802,-54.96753097,-89.11893969,-93.71945974,0.27683331
1.88338995,16.52488620,-0.44318912,-0.61927001,0.05383586

>  <Name>
1uts_lig

>  <RI>
0

>  <Rbt.Current_Directory>
/home/itssahil/PROJECTS/Mol_Feturizer/New_Systems/rnas/1uts

>  <Rbt.Executable>
rbdock ($Id: //depot/dev/client3/rdock/2013.1/src/exe/rbdock.cxx#4 $)

>  <Rbt.Library>
libRbt.so (2013.1, Build901 2013/11/27)

>  <Rbt.Parameter_File>
/export/apps/rDock/src/rDock_2013.1_src/data/scripts/dock_solv.prm

>  <Rbt.Receptor>
prm/pocket_docking_5.prm

>  <SCORE>
-30.8517

>  <SCORE.INTER>
-27.8792

>  <SCORE.INTER.CONST>
1

>  <SCORE.INTER.POLAR>
-1.48004

>  <SCORE.INTER.ROT>
10

>  <SCORE.INTER.SOLV>
10.5323

>  <SCORE.INTER.VDW>
-27.4301

>  <SCORE.INTER.norm>
-0.929307

>  <SCORE.INTRA>
-2.97253

>  <SCORE.INTRA.DIHEDRAL>
-4.02908

>  <SCORE.INTRA.DIHEDRAL.0>
18.0451

>  <SCORE.INTRA.POLAR>
0.196815

>  <SCORE.INTRA.POLAR.0>
-0.196815

>  <SCORE.INTRA.REPUL>
0

>  <SCORE.INTRA.REPUL.0>
0

>  <SCORE.INTRA.SOLV>
-0.197755

>  <SCORE.INTRA.SOLV.lig_0>
-14.7906

>  <SCORE.INTRA.VDW>
-1.52828

>  <SCORE.INTRA.VDW.0>
-0.411701

>  <SCORE.INTRA.norm>
-0.0990842

>  <SCORE.RESTR>
0

>  <SCORE.RESTR.CAVITY>
0

>  <SCORE.RESTR.norm>
0

>  <SCORE.SYSTEM>
0

>  <SCORE.SYSTEM.CONST>
0

>  <SCORE.SYSTEM.DIHEDRAL>
0

>  <SCORE.SYSTEM.SOLV>
0

>  <SCORE.SYSTEM.norm>
0

>  <SCORE.heavy>
30

>  <SCORE.norm>
-1.02839

>  <RMSD>
1.750

$$$$
1uts_lig
 OpenBabel11021811413D
libRbt.so/2013.1/901 2013/11/27
 30 33  0  0  0  0  0  0  0  0999 V2000
    3.2958    3.7263   20.5941 N   0  0  0  0  0  0  0  0  0  0  0  0
    3.0528    6.1407   20.2083 C   0  0  0  0  0  0  0  0  0  0  0  0
    2.7162    3.7551   15.7479 C   0  0  0  0  0  0  0  0  0  0  0  0
    1.9378    6.0160   19.1659 C   0  0  0  0  0  0  0  0  0  0  0  0
    2.1022    4.7907   18.4370 O   0  0  0  0  0  0  0  0  0  0  0  0
    2.9255    5.0103   21.2311 C   0  0  0  0  0  0  0  0  0  0  0  0
    3.5592    3.4595   16.9286 N   0  0  0  0  0  0  0  0  0  0  0  0
    3.2034    2.1236   17.4762 C   0  0  0  0  0  0  0  0  0  0  0  0
    4.0541    1.0439   16.8009 C   0  0  0  0  0  0  0  0  0  0  0  0
    4.0942   -0.1606   17.6602 N   0  0  0  0  0  0  0  0  0  0  0  0
    5.2377   -1.0234   17.2455 C   0  0  0  0  0  0  0  0  0  0  0  0
    2.8086   -0.9032   17.5306 C   0  0  0  0  0  0  0  0  0  0  0  0
    5.2802   -2.2776   18.1335 C   0  0  0  0  0  0  0  0  0  0  0  0
    2.8515   -2.1613   18.4165 C   0  0  0  0  0  0  0  0  0  0  0  0
    3.9952   -3.0213   18.0034 N   0  0  0  0  0  0  0  0  0  0  0  0
   -1.3680    4.7905   16.9572 C   0  0  0  0  0  0  0  0  0  0  0  0
   -5.2031    3.7697   11.8286 N   0  0  0  0  0  0  0  0  0  0  0  0
   -1.1125    4.3128   15.6496 C   0  0  0  0  0  0  0  0  0  0  0  0
    0.2133    3.9796   15.2641 C   0  0  0  0  0  0  0  0  0  0  0  0
    1.2845    4.1213   16.1884 C   0  0  0  0  0  0  0  0  0  0  0  0
    1.0271    4.6186   17.5013 C   0  0  0  0  0  0  0  0  0  0  0  0
   -0.3026    4.9476   17.8826 C   0  0  0  0  0  0  0  0  0  0  0  0
   -4.4160    4.0506   10.6887 C   0  0  0  0  0  0  0  0  0  0  0  0
   -3.0808    4.3356   11.0543 C   0  0  0  0  0  0  0  0  0  0  0  0
   -1.9516    4.3780   13.3537 C   0  0  0  0  0  0  0  0  0  0  0  0
   -2.1735    4.1771   14.7433 C   0  0  0  0  0  0  0  0  0  0  0  0
   -3.4712    3.8317   15.2113 C   0  0  0  0  0  0  0  0  0  0  0  0
   -4.5438    3.6854   14.2905 C   0  0  0  0  0  0  0  0  0  0  0  0
   -4.3143    3.8745   12.8917 C   0  0  0  0  0  0  0  0  0  0  0  0
   -3.0312    4.2169   12.4270 C   0  0  0  0  0  0  0  0  0  0  0  0
  1  6  1  0  0  0  0
  2  4  1  0  0  0  0
  3  7  1  0  0  0  0
  4  5  1  0  0  0  0
  6  2  1  0  0  0  0
  7  8  1  0  0  0  0
  8  9  1  0  0  0  0
  9 10  1  0  0  0  0
 10 11  1  0  0  0  0
 10 12  1  0  0  0  0
 11 13  1  0  0  0  0
 13 15  1  0  0  0  0
 14 12  1  0  0  0  0
 15 14  1  0  0  0  0
 16 18  2  0  0  0  0
 16 22  1  0  0  0  0
 17 23  1  0  0  0  0
 17 29  1  0  0  0  0
 18 19  1  0  0  0  0
 18 26  1  0  0  0  0
 19 20  2  0  0  0  0
 20  3  1  0  0  0  0
 20 21  1  0  0  0  0
 21  5  1  0  0  0  0
 21 22  2  0  0  0  0
 23 24  2  0  0  0  0
 24 30  1  0  0  0  0
 25 26  2  0  0  0  0
 25 30  1  0  0  0  0
 26 27  1  0  0  0  0
 27 28  2  0  0  0  0
 28 29  1  0  0  0  0
 29 30  2  0  0  0  0
M  END
>  <CHROM.1>
-50.80221383,-63.78673241,74.81021955,176.97504032,70.78712276,89.44704107
158.53318831,-161.99582986,147.73213871,-157.84265180,138.89739202,0.79190124
2.90446166,16.44400069,-0.04968378,-0.71650758,0.49104146

>  <Name>
1uts_lig

>  <RI>
0

>  <Rbt.Current_Directory>
/home/itssahil/PROJECTS/Mol_Feturizer/New_Systems/rnas/1uts

>  <Rbt.Executable>
rbdock ($Id: //depot/dev/client3/rdock/2013.1/src/exe/rbdock.cxx#4 $)

>  <Rbt.Library>
libRbt.so (2013.1, Build901 2013/11/27)

>  <Rbt.Parameter_File>
/export/apps/rDock/src/rDock_2013.1_src/data/scripts/dock_solv.prm

>  <Rbt.Receptor>
prm/pocket_docking_2.prm

>  <SCORE>
-29.655

>  <SCORE.INTER>
-24.8567

>  <SCORE.INTER.CONST>
1

>  <SCORE.INTER.POLAR>
-0.8

>  <SCORE.INTER.ROT>
10

>  <SCORE.INTER.SOLV>
9.68234

>  <SCORE.INTER.VDW>
-27.3986

>  <SCORE.INTER.norm>
-0.828557

>  <SCORE.INTRA>
-4.9222

>  <SCORE.INTRA.DIHEDRAL>
-8.60104

>  <SCORE.INTRA.DIHEDRAL.0>
18.0451

>  <SCORE.INTRA.POLAR>
-1.18971

>  <SCORE.INTRA.POLAR.0>
-0.196815

>  <SCORE.INTRA.REPUL>
0.00391235

>  <SCORE.INTRA.REPUL.0>
0

>  <SCORE.INTRA.SOLV>
0.63536

>  <SCORE.INTRA.SOLV.lig_0>
-14.7906

>  <SCORE.INTRA.VDW>
3.08609

>  <SCORE.INTRA.VDW.0>
-0.411701

>  <SCORE.INTRA.norm>
-0.164073

>  <SCORE.RESTR>
0.12394

>  <SCORE.RESTR.CAVITY>
0.12394

>  <SCORE.RESTR.norm>
0.00413133

>  <SCORE.SYSTEM>
0

>  <SCORE.SYSTEM.CONST>
0

>  <SCORE.SYSTEM.DIHEDRAL>
0

>  <SCORE.SYSTEM.SOLV>
0

>  <SCORE.SYSTEM.norm>
0

>  <SCORE.heavy>
30

>  <SCORE.norm>
-0.988499

>  <RMSD>
1.757

$$$$
1uts_lig
 OpenBabel11021811413D
libRbt.so/2013.1/901 2013/11/27
 30 33  0  0  0  0  0  0  0  0999 V2000
    2.9496    4.5052   20.8663 N   0  0  0  0  0  0  0  0  0  0  0  0
    4.2658    5.0197   18.8563 C   0  0  0  0  0  0  0  0  0  0  0  0
    2.2625    2.2362   16.0797 C   0  0  0  0  0  0  0  0  0  0  0  0
    3.0703    5.0624   17.9002 C   0  0  0  0  0  0  0  0  0  0  0  0
    2.0780    4.1216   18.3363 O   0  0  0  0  0  0  0  0  0  0  0  0
    3.8334    5.5131   20.2383 C   0  0  0  0  0  0  0  0  0  0  0  0
    2.5188    1.4428   17.3032 N   0  0  0  0  0  0  0  0  0  0  0  0
    3.8092    0.7165   17.1680 C   0  0  0  0  0  0  0  0  0  0  0  0
    3.6315   -0.7407   17.6042 C   0  0  0  0  0  0  0  0  0  0  0  0
    4.8201   -1.1734   18.3728 N   0  0  0  0  0  0  0  0  0  0  0  0
    4.7992   -2.6574   18.5181 C   0  0  0  0  0  0  0  0  0  0  0  0
    4.8075   -0.5195   19.7120 C   0  0  0  0  0  0  0  0  0  0  0  0
    6.0305   -3.1102   19.3194 C   0  0  0  0  0  0  0  0  0  0  0  0
    6.0381   -0.9751   20.5167 C   0  0  0  0  0  0  0  0  0  0  0  0
    6.0178   -2.4575   20.6592 N   0  0  0  0  0  0  0  0  0  0  0  0
   -1.2017    4.8657   16.6271 C   0  0  0  0  0  0  0  0  0  0  0  0
   -5.2100    3.9008   11.6355 N   0  0  0  0  0  0  0  0  0  0  0  0
   -1.1436    3.9866   15.5193 C   0  0  0  0  0  0  0  0  0  0  0  0
   -0.0179    3.1376   15.3477 C   0  0  0  0  0  0  0  0  0  0  0  0
    1.0495    3.1655   16.2867 C   0  0  0  0  0  0  0  0  0  0  0  0
    0.9963    4.0644   17.3941 C   0  0  0  0  0  0  0  0  0  0  0  0
   -0.1345    4.9098   17.5625 C   0  0  0  0  0  0  0  0  0  0  0  0
   -4.3903    4.1776   10.5178 C   0  0  0  0  0  0  0  0  0  0  0  0
   -3.0437    4.3526   10.9099 C   0  0  0  0  0  0  0  0  0  0  0  0
   -1.9453    4.2131   13.2203 C   0  0  0  0  0  0  0  0  0  0  0  0
   -2.1991    3.9657   14.5968 C   0  0  0  0  0  0  0  0  0  0  0  0
   -3.5236    3.6902   15.0351 C   0  0  0  0  0  0  0  0  0  0  0  0
   -4.5912    3.6602   14.0976 C   0  0  0  0  0  0  0  0  0  0  0  0
   -4.3305    3.8958   12.7114 C   0  0  0  0  0  0  0  0  0  0  0  0
   -3.0209    4.1691   12.2761 C   0  0  0  0  0  0  0  0  0  0  0  0
  1  6  1  0  0  0  0
  2  4  1  0  0  0  0
  3  7  1  0  0  0  0
  4  5  1  0  0  0  0
  6  2  1  0  0  0  0
  7  8  1  0  0  0  0
  8  9  1  0  0  0  0
  9 10  1  0  0  0  0
 10 11  1  0  0  0  0
 10 12  1  0  0  0  0
 11 13  1  0  0  0  0
 13 15  1  0  0  0  0
 14 12  1  0  0  0  0
 15 14  1  0  0  0  0
 16 18  2  0  0  0  0
 16 22  1  0  0  0  0
 17 23  1  0  0  0  0
 17 29  1  0  0  0  0
 18 19  1  0  0  0  0
 18 26  1  0  0  0  0
 19 20  2  0  0  0  0
 20  3  1  0  0  0  0
 20 21  1  0  0  0  0
 21  5  1  0  0  0  0
 21 22  2  0  0  0  0
 23 24  2  0  0  0  0
 24 30  1  0  0  0  0
 25 26  2  0  0  0  0
 25 30  1  0  0  0  0
 26 27  1  0  0  0  0
 27 28  2  0  0  0  0
 28 29  1  0  0  0  0
 29 30  2  0  0  0  0
M  END
>  <CHROM.1>
-168.07534852,-65.44507905,-171.07494945,-175.25622692,70.72580907,-133.61617356
-140.01348356,-166.74474062,123.01568914,-127.24045275,88.24986382,1.11878135
2.48544901,16.66449074,-0.14160727,-0.74276767,0.39280879

>  <Name>
1uts_lig

>  <RI>
0

>  <Rbt.Current_Directory>
/home/itssahil/PROJECTS/Mol_Feturizer/New_Systems/rnas/1uts

>  <Rbt.Executable>
rbdock ($Id: //depot/dev/client3/rdock/2013.1/src/exe/rbdock.cxx#4 $)

>  <Rbt.Library>
libRbt.so (2013.1, Build901 2013/11/27)

>  <Rbt.Parameter_File>
/export/apps/rDock/src/rDock_2013.1_src/data/scripts/dock_solv.prm

>  <Rbt.Receptor>
prm/pocket_docking_2.prm

>  <SCORE>
-19.365

>  <SCORE.INTER>
-15.3879

>  <SCORE.INTER.CONST>
1

>  <SCORE.INTER.POLAR>
0

>  <SCORE.INTER.ROT>
10

>  <SCORE.INTER.SOLV>
8.6722

>  <SCORE.INTER.VDW>
-23.416

>  <SCORE.INTER.norm>
-0.51293

>  <SCORE.INTRA>
-3.98291

>  <SCORE.INTRA.DIHEDRAL>
-0.280593

>  <SCORE.INTRA.DIHEDRAL.0>
18.0451

>  <SCORE.INTRA.POLAR>
-1.10359

>  <SCORE.INTRA.POLAR.0>
-0.196815

>  <SCORE.INTRA.REPUL>
0

>  <SCORE.INTRA.REPUL.0>
0

>  <SCORE.INTRA.SOLV>
0.224143

>  <SCORE.INTRA.SOLV.lig_0>
-14.7906

>  <SCORE.INTRA.VDW>
-0.202484

>  <SCORE.INTRA.VDW.0>
-0.411701

>  <SCORE.INTRA.norm>
-0.132764

>  <SCORE.RESTR>
0.00577964

>  <SCORE.RESTR.CAVITY>
0.00577964

>  <SCORE.RESTR.norm>
0.000192655

>  <SCORE.SYSTEM>
0

>  <SCORE.SYSTEM.CONST>
0

>  <SCORE.SYSTEM.DIHEDRAL>
0

>  <SCORE.SYSTEM.SOLV>
0

>  <SCORE.SYSTEM.norm>
0

>  <SCORE.heavy>
30

>  <SCORE.norm>
-0.645501

>  <RMSD>
1.764

$$$$
1uts_lig
 OpenBabel11021811413D
libRbt.so/2013.1/901 2013/11/27
 30 33  0  0  0  0  0  0  0  0999 V2000
    4.4096    4.9484   21.8150 N   0  0  0  0  0  0  0  0  0  0  0  0
    3.3625    5.9329   19.8222 C   0  0  0  0  0  0  0  0  0  0  0  0
    2.5560    2.9393   15.8193 C   0  0  0  0  0  0  0  0  0  0  0  0
    2.1684    5.8185   18.8702 C   0  0  0  0  0  0  0  0  0  0  0  0
    2.1544    4.5107   18.2791 O   0  0  0  0  0  0  0  0  0  0  0  0
    3.1805    4.9619   20.9901 C   0  0  0  0  0  0  0  0  0  0  0  0
    2.8828    1.9461   16.8675 N   0  0  0  0  0  0  0  0  0  0  0  0
    4.1328    1.2274   16.5042 C   0  0  0  0  0  0  0  0  0  0  0  0
    4.5712    0.3312   17.6661 C   0  0  0  0  0  0  0  0  0  0  0  0
    3.9418   -1.0010   17.5254 N   0  0  0  0  0  0  0  0  0  0  0  0
    2.5620   -0.9557   18.0892 C   0  0  0  0  0  0  0  0  0  0  0  0
    4.7644   -2.0146   18.2443 C   0  0  0  0  0  0  0  0  0  0  0  0
    1.9064   -2.3390   17.9482 C   0  0  0  0  0  0  0  0  0  0  0  0
    4.1068   -3.3997   18.1070 C   0  0  0  0  0  0  0  0  0  0  0  0
    2.7280   -3.3530   18.6681 N   0  0  0  0  0  0  0  0  0  0  0  0
   -1.2463    4.9341   16.7017 C   0  0  0  0  0  0  0  0  0  0  0  0
   -5.1984    3.8897   11.6743 N   0  0  0  0  0  0  0  0  0  0  0  0
   -1.0882    4.2034   15.4999 C   0  0  0  0  0  0  0  0  0  0  0  0
    0.1467    3.5598   15.2199 C   0  0  0  0  0  0  0  0  0  0  0  0
    1.2237    3.6445   16.1445 C   0  0  0  0  0  0  0  0  0  0  0  0
    1.0675    4.3954   17.3482 C   0  0  0  0  0  0  0  0  0  0  0  0
   -0.1719    5.0350   17.6245 C   0  0  0  0  0  0  0  0  0  0  0  0
   -4.4020    4.1629   10.5391 C   0  0  0  0  0  0  0  0  0  0  0  0
   -3.0568    4.3901   10.9085 C   0  0  0  0  0  0  0  0  0  0  0  0
   -1.9255    4.3450   13.2068 C   0  0  0  0  0  0  0  0  0  0  0  0
   -2.1540    4.1256   14.5925 C   0  0  0  0  0  0  0  0  0  0  0  0
   -3.4635    3.8203   15.0553 C   0  0  0  0  0  0  0  0  0  0  0  0
   -4.5414    3.7326   14.1333 C   0  0  0  0  0  0  0  0  0  0  0  0
   -4.3057    3.9401   12.7381 C   0  0  0  0  0  0  0  0  0  0  0  0
   -3.0109    4.2428   12.2785 C   0  0  0  0  0  0  0  0  0  0  0  0
  1  6  1  0  0  0  0
  2  4  1  0  0  0  0
  3  7  1  0  0  0  0
  4  5  1  0  0  0  0
  6  2  1  0  0  0  0
  7  8  1  0  0  0  0
  8  9  1  0  0  0  0
  9 10  1  0  0  0  0
 10 11  1  0  0  0  0
 10 12  1  0  0  0  0
 11 13  1  0  0  0  0
 13 15  1  0  0  0  0
 14 12  1  0  0  0  0
 15 14  1  0  0  0  0
 16 18  2  0  0  0  0
 16 22  1  0  0  0  0
 17 23  1  0  0  0  0
 17 29  1  0  0  0  0
 18 19  1  0  0  0  0
 18 26  1  0  0  0  0
 19 20  2  0  0  0  0
 20  3  1  0  0  0  0
 20 21  1  0  0  0  0
 21  5  1  0  0  0  0
 21 22  2  0  0  0  0
 23 24  2  0  0  0  0
 24 30  1  0  0  0  0
 25 26  2  0  0  0  0
 25 30  1  0  0  0  0
 26 27  1  0  0  0  0
 27 28  2  0  0  0  0
 28 29  1  0  0  0  0
 29 30  2  0  0  0  0
M  END
>  <CHROM.1>
59.20960628,-64.97890835,177.14162046,-178.09477557,172.87435378,172.73965374
89.24478531,-83.18061458,133.58425676,-120.68057495,143.46490251,0.73958838
2.64481539,16.44212213,-0.16550489,-0.75773859,0.33131140

>  <Name>
1uts_lig

>  <RI>
0

>  <Rbt.Current_Directory>
/home/itssahil/PROJECTS/Mol_Feturizer/New_Systems/rnas/1uts

>  <Rbt.Executable>
rbdock ($Id: //depot/dev/client3/rdock/2013.1/src/exe/rbdock.cxx#4 $)

>  <Rbt.Library>
libRbt.so (2013.1, Build901 2013/11/27)

>  <Rbt.Parameter_File>
/export/apps/rDock/src/rDock_2013.1_src/data/scripts/dock_solv.prm

>  <Rbt.Receptor>
prm/pocket_docking_2.prm

>  <SCORE>
-25.8906

>  <SCORE.INTER>
-23.0064

>  <SCORE.INTER.CONST>
1

>  <SCORE.INTER.POLAR>
-0.672796

>  <SCORE.INTER.ROT>
10

>  <SCORE.INTER.SOLV>
9.58875

>  <SCORE.INTER.VDW>
-26.5578

>  <SCORE.INTER.norm>
-0.766879

>  <SCORE.INTRA>
-3.33678

>  <SCORE.INTRA.DIHEDRAL>
-8.78839

>  <SCORE.INTRA.DIHEDRAL.0>
18.0451

>  <SCORE.INTRA.POLAR>
-0.0712805

>  <SCORE.INTRA.POLAR.0>
-0.196815

>  <SCORE.INTRA.REPUL>
0

>  <SCORE.INTRA.REPUL.0>
0

>  <SCORE.INTRA.SOLV>
-0.213186

>  <SCORE.INTRA.SOLV.lig_0>
-14.7906

>  <SCORE.INTRA.VDW>
1.40636

>  <SCORE.INTRA.VDW.0>
-0.411701

>  <SCORE.INTRA.norm>
-0.111226

>  <SCORE.RESTR>
0.452544

>  <SCORE.RESTR.CAVITY>
0.452544

>  <SCORE.RESTR.norm>
0.0150848

>  <SCORE.SYSTEM>
0

>  <SCORE.SYSTEM.CONST>
0

>  <SCORE.SYSTEM.DIHEDRAL>
0

>  <SCORE.SYSTEM.SOLV>
0

>  <SCORE.SYSTEM.norm>
0

>  <SCORE.heavy>
30

>  <SCORE.norm>
-0.86302

>  <RMSD>
1.768

$$$$
1uts_lig
 OpenBabel11021811413D
libRbt.so/2013.1/901 2013/11/27
 30 33  0  0  0  0  0  0  0  0999 V2000
    3.9568    3.5746   22.8291 N   0  0  0  0  0  0  0  0  0  0  0  0
    2.6690    4.5327   20.9687 C   0  0  0  0  0  0  0  0  0  0  0  0
    2.3438    4.3862   16.4719 C   0  0  0  0  0  0  0  0  0  0  0  0
    1.5583    4.2509   19.9528 C   0  0  0  0  0  0  0  0  0  0  0  0
    1.4105    5.3828   19.0828 O   0  0  0  0  0  0  0  0  0  0  0  0
    2.8779    3.3019   21.8529 C   0  0  0  0  0  0  0  0  0  0  0  0
    2.5407    3.0416   15.8843 N   0  0  0  0  0  0  0  0  0  0  0  0
    2.2267    2.0008   16.8987 C   0  0  0  0  0  0  0  0  0  0  0  0
    1.8128    0.7032   16.1983 C   0  0  0  0  0  0  0  0  0  0  0  0
    1.8415   -0.4123   17.1708 N   0  0  0  0  0  0  0  0  0  0  0  0
    3.2566   -0.8102   17.4220 C   0  0  0  0  0  0  0  0  0  0  0  0
    1.0666   -1.5628   16.6262 C   0  0  0  0  0  0  0  0  0  0  0  0
    3.2902   -1.9713   18.4288 C   0  0  0  0  0  0  0  0  0  0  0  0
    1.1027   -2.7275   17.6320 C   0  0  0  0  0  0  0  0  0  0  0  0
    2.5163   -3.1228   17.8841 N   0  0  0  0  0  0  0  0  0  0  0  0
   -1.9060    5.0505   17.3159 C   0  0  0  0  0  0  0  0  0  0  0  0
   -5.5359    3.6428   12.2442 N   0  0  0  0  0  0  0  0  0  0  0  0
   -1.4974    4.5878   16.0422 C   0  0  0  0  0  0  0  0  0  0  0  0
   -0.1186    4.3751   15.7753 C   0  0  0  0  0  0  0  0  0  0  0  0
    0.8523    4.6225   16.7842 C   0  0  0  0  0  0  0  0  0  0  0  0
    0.4394    5.1046   18.0626 C   0  0  0  0  0  0  0  0  0  0  0  0
   -0.9424    5.3128   18.3251 C   0  0  0  0  0  0  0  0  0  0  0  0
   -6.5930    3.4391   13.1600 C   0  0  0  0  0  0  0  0  0  0  0  0
   -6.1339    3.5426   14.4927 C   0  0  0  0  0  0  0  0  0  0  0  0
   -3.8004    4.0501   15.4207 C   0  0  0  0  0  0  0  0  0  0  0  0
   -2.4603    4.3475   15.0520 C   0  0  0  0  0  0  0  0  0  0  0  0
   -2.0999    4.4076   13.6776 C   0  0  0  0  0  0  0  0  0  0  0  0
   -3.0789    4.1729   12.6747 C   0  0  0  0  0  0  0  0  0  0  0  0
   -4.4294    3.8876   13.0486 C   0  0  0  0  0  0  0  0  0  0  0  0
   -4.7877    3.8272   14.4078 C   0  0  0  0  0  0  0  0  0  0  0  0
  1  6  1  0  0  0  0
  2  4  1  0  0  0  0
  3  7  1  0  0  0  0
  4  5  1  0  0  0  0
  6  2  1  0  0  0  0
  7  8  1  0  0  0  0
  8  9  1  0  0  0  0
  9 10  1  0  0  0  0
 10 11  1  0  0  0  0
 10 12  1  0  0  0  0
 11 13  1  0  0  0  0
 13 15  1  0  0  0  0
 14 12  1  0  0  0  0
 15 14  1  0  0  0  0
 16 18  2  0  0  0  0
 16 22  1  0  0  0  0
 17 23  1  0  0  0  0
 17 29  1  0  0  0  0
 18 19  1  0  0  0  0
 18 26  1  0  0  0  0
 19 20  2  0  0  0  0
 20  3  1  0  0  0  0
 20 21  1  0  0  0  0
 21  5  1  0  0  0  0
 21 22  2  0  0  0  0
 23 24  2  0  0  0  0
 24 30  1  0  0  0  0
 25 26  2  0  0  0  0
 25 30  1  0  0  0  0
 26 27  1  0  0  0  0
 27 28  2  0  0  0  0
 28 29  1  0  0  0  0
 29 30  2  0  0  0  0
M  END
>  <CHROM.1>
-179.10224582,-177.17291851,-66.45871980,175.94482232,179.70135628,154.69911445
165.48361370,-75.87384989,-24.75050817,-50.53460355,-95.01934191,-0.08716017
2.73860151,16.83795097,-0.05299822,-0.70704621,0.39936346

>  <Name>
1uts_lig

>  <RI>
0

>  <Rbt.Current_Directory>
/home/itssahil/PROJECTS/Mol_Feturizer/New_Systems/rnas/1uts

>  <Rbt.Executable>
rbdock ($Id: //depot/dev/client3/rdock/2013.1/src/exe/rbdock.cxx#4 $)

>  <Rbt.Library>
libRbt.so (2013.1, Build901 2013/11/27)

>  <Rbt.Parameter_File>
/export/apps/rDock/src/rDock_2013.1_src/data/scripts/dock_solv.prm

>  <Rbt.Receptor>
prm/pocket_docking_3.prm

>  <SCORE>
-29.2099

>  <SCORE.INTER>
-26.1244

>  <SCORE.INTER.CONST>
1

>  <SCORE.INTER.POLAR>
-0.735455

>  <SCORE.INTER.ROT>
10

>  <SCORE.INTER.SOLV>
10.0872

>  <SCORE.INTER.VDW>
-28.5938

>  <SCORE.INTER.norm>
-0.870814

>  <SCORE.INTRA>
-3.08545

>  <SCORE.INTRA.DIHEDRAL>
-8.75147

>  <SCORE.INTRA.DIHEDRAL.0>
18.0451

>  <SCORE.INTRA.POLAR>
0.196815

>  <SCORE.INTRA.POLAR.0>
-0.196815

>  <SCORE.INTRA.REPUL>
0

>  <SCORE.INTRA.REPUL.0>
0

>  <SCORE.INTRA.SOLV>
-0.61805

>  <SCORE.INTRA.SOLV.lig_0>
-14.7906

>  <SCORE.INTRA.VDW>
0.930132

>  <SCORE.INTRA.VDW.0>
-0.411701

>  <SCORE.INTRA.norm>
-0.102848

>  <SCORE.RESTR>
0

>  <SCORE.RESTR.CAVITY>
0

>  <SCORE.RESTR.norm>
0

>  <SCORE.SYSTEM>
0

>  <SCORE.SYSTEM.CONST>
0

>  <SCORE.SYSTEM.DIHEDRAL>
0

>  <SCORE.SYSTEM.SOLV>
0

>  <SCORE.SYSTEM.norm>
0

>  <SCORE.heavy>
30

>  <SCORE.norm>
-0.973662

>  <RMSD>
1.768

$$$$
1uts_lig
 OpenBabel11021811413D
libRbt.so/2013.1/901 2013/11/27
 30 33  0  0  0  0  0  0  0  0999 V2000
    4.6067    6.0731   21.4457 N   0  0  0  0  0  0  0  0  0  0  0  0
    2.8790    4.5483   20.5930 C   0  0  0  0  0  0  0  0  0  0  0  0
    2.6046    3.0249   15.9339 C   0  0  0  0  0  0  0  0  0  0  0  0
    1.7121    4.4272   19.6087 C   0  0  0  0  0  0  0  0  0  0  0  0
    2.1698    4.7452   18.2861 O   0  0  0  0  0  0  0  0  0  0  0  0
    3.3932    5.9890   20.6021 C   0  0  0  0  0  0  0  0  0  0  0  0
    2.9898    2.2388   17.1279 N   0  0  0  0  0  0  0  0  0  0  0  0
    3.5471    0.9266   16.7052 C   0  0  0  0  0  0  0  0  0  0  0  0
    3.6317   -0.0129   17.9117 C   0  0  0  0  0  0  0  0  0  0  0  0
    4.2135   -1.3066   17.4888 N   0  0  0  0  0  0  0  0  0  0  0  0
    3.9399   -2.3346   18.5338 C   0  0  0  0  0  0  0  0  0  0  0  0
    5.6816   -1.1463   17.2887 C   0  0  0  0  0  0  0  0  0  0  0  0
    4.5461   -3.6790   18.0997 C   0  0  0  0  0  0  0  0  0  0  0  0
    6.2903   -2.4928   16.8576 C   0  0  0  0  0  0  0  0  0  0  0  0
    6.0146   -3.5196   17.9007 N   0  0  0  0  0  0  0  0  0  0  0  0
   -1.1868    5.1200   16.6055 C   0  0  0  0  0  0  0  0  0  0  0  0
   -5.0377    3.8490   11.5543 N   0  0  0  0  0  0  0  0  0  0  0  0
   -1.0119    4.3170   15.4532 C   0  0  0  0  0  0  0  0  0  0  0  0
    0.2194    3.6412   15.2414 C   0  0  0  0  0  0  0  0  0  0  0  0
    1.2759    3.7662   16.1848 C   0  0  0  0  0  0  0  0  0  0  0  0
    1.1032    4.5894   17.3379 C   0  0  0  0  0  0  0  0  0  0  0  0
   -0.1326    5.2610   17.5462 C   0  0  0  0  0  0  0  0  0  0  0  0
   -4.2287    4.1380   10.4319 C   0  0  0  0  0  0  0  0  0  0  0  0
   -2.8982    4.4091   10.8245 C   0  0  0  0  0  0  0  0  0  0  0  0
   -1.8097    4.4158   13.1438 C   0  0  0  0  0  0  0  0  0  0  0  0
   -2.0576    4.1998   14.5267 C   0  0  0  0  0  0  0  0  0  0  0  0
   -3.3657    3.8580   14.9674 C   0  0  0  0  0  0  0  0  0  0  0  0
   -4.4227    3.7304   14.0262 C   0  0  0  0  0  0  0  0  0  0  0  0
   -4.1672    3.9347   12.6341 C   0  0  0  0  0  0  0  0  0  0  0  0
   -2.8738    4.2735   12.1962 C   0  0  0  0  0  0  0  0  0  0  0  0
  1  6  1  0  0  0  0
  2  4  1  0  0  0  0
  3  7  1  0  0  0  0
  4  5  1  0  0  0  0
  6  2  1  0  0  0  0
  7  8  1  0  0  0  0
  8  9  1  0  0  0  0
  9 10  1  0  0  0  0
 10 11  1  0  0  0  0
 10 12  1  0  0  0  0
 11 13  1  0  0  0  0
 13 15  1  0  0  0  0
 14 12  1  0  0  0  0
 15 14  1  0  0  0  0
 16 18  2  0  0  0  0
 16 22  1  0  0  0  0
 17 23  1  0  0  0  0
 17 29  1  0  0  0  0
 18 19  1  0  0  0  0
 18 26  1  0  0  0  0
 19 20  2  0  0  0  0
 20  3  1  0  0  0  0
 20 21  1  0  0  0  0
 21  5  1  0  0  0  0
 21 22  2  0  0  0  0
 23 24  2  0  0  0  0
 24 30  1  0  0  0  0
 25 26  2  0  0  0  0
 25 30  1  0  0  0  0
 26 27  1  0  0  0  0
 27 28  2  0  0  0  0
 28 29  1  0  0  0  0
 29 30  2  0  0  0  0
M  END
>  <CHROM.1>
-64.32037800,61.71028456,139.99581816,177.84305746,-174.18876054,-166.47634773
-178.82115181,-163.84164398,129.65650121,-128.71544371,-126.34977316,1.10913734
2.61764234,16.37713894,-0.09083780,-0.72341142,0.56560522

>  <Name>
1uts_lig

>  <RI>
0

>  <Rbt.Current_Directory>
/home/itssahil/PROJECTS/Mol_Feturizer/New_Systems/rnas/1uts

>  <Rbt.Executable>
rbdock ($Id: //depot/dev/client3/rdock/2013.1/src/exe/rbdock.cxx#4 $)

>  <Rbt.Library>
libRbt.so (2013.1, Build901 2013/11/27)

>  <Rbt.Parameter_File>
/export/apps/rDock/src/rDock_2013.1_src/data/scripts/dock_solv.prm

>  <Rbt.Receptor>
prm/pocket_docking_3.prm

>  <SCORE>
-27.0882

>  <SCORE.INTER>
-24.2865

>  <SCORE.INTER.CONST>
1

>  <SCORE.INTER.POLAR>
-0.8

>  <SCORE.INTER.ROT>
10

>  <SCORE.INTER.SOLV>
10.1199

>  <SCORE.INTER.VDW>
-27.1643

>  <SCORE.INTER.norm>
-0.809551

>  <SCORE.INTRA>
-2.83074

>  <SCORE.INTRA.DIHEDRAL>
-7.41579

>  <SCORE.INTRA.DIHEDRAL.0>
18.0451

>  <SCORE.INTRA.POLAR>
0.196815

>  <SCORE.INTRA.POLAR.0>
-0.196815

>  <SCORE.INTRA.REPUL>
0

>  <SCORE.INTRA.REPUL.0>
0

>  <SCORE.INTRA.SOLV>
-0.292558

>  <SCORE.INTRA.SOLV.lig_0>
-14.7906

>  <SCORE.INTRA.VDW>
0.354269

>  <SCORE.INTRA.VDW.0>
-0.411701

>  <SCORE.INTRA.norm>
-0.0943578

>  <SCORE.RESTR>
0.0290771

>  <SCORE.RESTR.CAVITY>
0.0290771

>  <SCORE.RESTR.norm>
0.000969238

>  <SCORE.SYSTEM>
0

>  <SCORE.SYSTEM.CONST>
0

>  <SCORE.SYSTEM.DIHEDRAL>
0

>  <SCORE.SYSTEM.SOLV>
0

>  <SCORE.SYSTEM.norm>
0

>  <SCORE.heavy>
30

>  <SCORE.norm>
-0.90294

>  <RMSD>
1.773

$$$$
1uts_lig
 OpenBabel11021811413D
libRbt.so/2013.1/901 2013/11/27
 30 33  0  0  0  0  0  0  0  0999 V2000
    1.9983    5.9312   20.7321 N   0  0  0  0  0  0  0  0  0  0  0  0
    1.7675    3.5016   20.4469 C   0  0  0  0  0  0  0  0  0  0  0  0
    2.6769    2.5908   16.2027 C   0  0  0  0  0  0  0  0  0  0  0  0
    2.6700    3.3746   19.2162 C   0  0  0  0  0  0  0  0  0  0  0  0
    2.5310    4.5474   18.4007 O   0  0  0  0  0  0  0  0  0  0  0  0
    2.2905    4.6188   21.3516 C   0  0  0  0  0  0  0  0  0  0  0  0
    2.3562    1.1715   16.4764 N   0  0  0  0  0  0  0  0  0  0  0  0
    3.5903    0.3492   16.3681 C   0  0  0  0  0  0  0  0  0  0  0  0
    4.0772   -0.0406   17.7668 C   0  0  0  0  0  0  0  0  0  0  0  0
    4.1365   -1.5156   17.8744 N   0  0  0  0  0  0  0  0  0  0  0  0
    2.8497   -2.0206   18.4338 C   0  0  0  0  0  0  0  0  0  0  0  0
    5.2741   -1.9014   18.7566 C   0  0  0  0  0  0  0  0  0  0  0  0
    2.9090   -3.5523   18.5507 C   0  0  0  0  0  0  0  0  0  0  0  0
    5.3322   -3.4349   18.8774 C   0  0  0  0  0  0  0  0  0  0  0  0
    4.0458   -3.9387   19.4338 N   0  0  0  0  0  0  0  0  0  0  0  0
   -0.8620    5.0962   16.8457 C   0  0  0  0  0  0  0  0  0  0  0  0
   -5.0807    3.7745   12.1132 N   0  0  0  0  0  0  0  0  0  0  0  0
   -0.8247    4.1808   15.7669 C   0  0  0  0  0  0  0  0  0  0  0  0
    0.3253    3.3723   15.5639 C   0  0  0  0  0  0  0  0  0  0  0  0
    1.4381    3.4772   16.4428 C   0  0  0  0  0  0  0  0  0  0  0  0
    1.4050    4.4125   17.5204 C   0  0  0  0  0  0  0  0  0  0  0  0
    0.2498    5.2171   17.7205 C   0  0  0  0  0  0  0  0  0  0  0  0
   -4.3186    3.9535   10.9364 C   0  0  0  0  0  0  0  0  0  0  0  0
   -2.9544    4.1582   11.2441 C   0  0  0  0  0  0  0  0  0  0  0  0
   -1.7412    4.2129   13.5000 C   0  0  0  0  0  0  0  0  0  0  0  0
   -1.9252    4.0840   14.9036 C   0  0  0  0  0  0  0  0  0  0  0  0
   -3.2255    3.8498   15.4295 C   0  0  0  0  0  0  0  0  0  0  0  0
   -4.3387    3.7426   14.5527 C   0  0  0  0  0  0  0  0  0  0  0  0
   -4.1483    3.8590   13.1402 C   0  0  0  0  0  0  0  0  0  0  0  0
   -2.8627    4.0913   12.6181 C   0  0  0  0  0  0  0  0  0  0  0  0
  1  6  1  0  0  0  0
  2  4  1  0  0  0  0
  3  7  1  0  0  0  0
  4  5  1  0  0  0  0
  6  2  1  0  0  0  0
  7  8  1  0  0  0  0
  8  9  1  0  0  0  0
  9 10  1  0  0  0  0
 10 11  1  0  0  0  0
 10 12  1  0  0  0  0
 11 13  1  0  0  0  0
 13 15  1  0  0  0  0
 14 12  1  0  0  0  0
 15 14  1  0  0  0  0
 16 18  2  0  0  0  0
 16 22  1  0  0  0  0
 17 23  1  0  0  0  0
 17 29  1  0  0  0  0
 18 19  1  0  0  0  0
 18 26  1  0  0  0  0
 19 20  2  0  0  0  0
 20  3  1  0  0  0  0
 20 21  1  0  0  0  0
 21  5  1  0  0  0  0
 21 22  2  0  0  0  0
 23 24  2  0  0  0  0
 24 30  1  0  0  0  0
 25 26  2  0  0  0  0
 25 30  1  0  0  0  0
 26 27  1  0  0  0  0
 27 28  2  0  0  0  0
 28 29  1  0  0  0  0
 29 30  2  0  0  0  0
M  END
>  <CHROM.1>
-164.56942333,-67.61753696,-174.57092687,-85.00626529,73.15020394,105.04703018
121.71608323,-92.86705947,126.74595479,-68.71650954,-69.37803237,0.79464225
2.28023818,16.70320871,-0.20649407,-0.79782921,0.48766215

>  <Name>
1uts_lig

>  <RI>
0

>  <Rbt.Current_Directory>
/home/itssahil/PROJECTS/Mol_Feturizer/New_Systems/rnas/1uts

>  <Rbt.Executable>
rbdock ($Id: //depot/dev/client3/rdock/2013.1/src/exe/rbdock.cxx#4 $)

>  <Rbt.Library>
libRbt.so (2013.1, Build901 2013/11/27)

>  <Rbt.Parameter_File>
/export/apps/rDock/src/rDock_2013.1_src/data/scripts/dock_solv.prm

>  <Rbt.Receptor>
prm/pocket_docking_2.prm

>  <SCORE>
-20.163

>  <SCORE.INTER>
-20.6675

>  <SCORE.INTER.CONST>
1

>  <SCORE.INTER.POLAR>
-0.8

>  <SCORE.INTER.ROT>
10

>  <SCORE.INTER.SOLV>
9.23533

>  <SCORE.INTER.VDW>
-24.4568

>  <SCORE.INTER.norm>
-0.688916

>  <SCORE.INTRA>
0.449528

>  <SCORE.INTRA.DIHEDRAL>
4.79918

>  <SCORE.INTRA.DIHEDRAL.0>
18.0451

>  <SCORE.INTRA.POLAR>
-0.54018

>  <SCORE.INTRA.POLAR.0>
-0.196815

>  <SCORE.INTRA.REPUL>
0

>  <SCORE.INTRA.REPUL.0>
0

>  <SCORE.INTRA.SOLV>
0.180237

>  <SCORE.INTRA.SOLV.lig_0>
-14.7906

>  <SCORE.INTRA.VDW>
-0.203567

>  <SCORE.INTRA.VDW.0>
-0.411701

>  <SCORE.INTRA.norm>
0.0149843

>  <SCORE.RESTR>
0.0549829

>  <SCORE.RESTR.CAVITY>
0.0549829

>  <SCORE.RESTR.norm>
0.00183276

>  <SCORE.SYSTEM>
0

>  <SCORE.SYSTEM.CONST>
0

>  <SCORE.SYSTEM.DIHEDRAL>
0

>  <SCORE.SYSTEM.SOLV>
0

>  <SCORE.SYSTEM.norm>
0

>  <SCORE.heavy>
30

>  <SCORE.norm>
-0.672099

>  <RMSD>
1.774

$$$$
1uts_lig
 OpenBabel11021811413D
libRbt.so/2013.1/901 2013/11/27
 30 33  0  0  0  0  0  0  0  0999 V2000
    4.3593    2.3116   18.0450 N   0  0  0  0  0  0  0  0  0  0  0  0
    3.6188    4.3887   16.9612 C   0  0  0  0  0  0  0  0  0  0  0  0
    1.0374    1.2564   17.3773 C   0  0  0  0  0  0  0  0  0  0  0  0
    2.7546    4.8872   18.1231 C   0  0  0  0  0  0  0  0  0  0  0  0
    1.8432    3.8510   18.5173 O   0  0  0  0  0  0  0  0  0  0  0  0
    4.8178    3.6140   17.5112 C   0  0  0  0  0  0  0  0  0  0  0  0
    1.7592    0.7595   16.1839 N   0  0  0  0  0  0  0  0  0  0  0  0
    2.1703   -0.6532   16.3993 C   0  0  0  0  0  0  0  0  0  0  0  0
    3.2506   -0.7186   17.4829 C   0  0  0  0  0  0  0  0  0  0  0  0
    3.6771   -2.1237   17.6690 N   0  0  0  0  0  0  0  0  0  0  0  0
    2.5563   -2.9031   18.2690 C   0  0  0  0  0  0  0  0  0  0  0  0
    4.8727   -2.1636   18.5578 C   0  0  0  0  0  0  0  0  0  0  0  0
    2.9970   -4.3625   18.4674 C   0  0  0  0  0  0  0  0  0  0  0  0
    5.3126   -3.6248   18.7602 C   0  0  0  0  0  0  0  0  0  0  0  0
    4.1919   -4.4031   19.3573 N   0  0  0  0  0  0  0  0  0  0  0  0
   -1.0826    4.9706   16.4154 C   0  0  0  0  0  0  0  0  0  0  0  0
   -5.9887    3.7111   12.4573 N   0  0  0  0  0  0  0  0  0  0  0  0
   -1.4903    3.7471   15.8323 C   0  0  0  0  0  0  0  0  0  0  0  0
   -0.7987    2.5472   16.1480 C   0  0  0  0  0  0  0  0  0  0  0  0
    0.3001    2.5707   17.0502 C   0  0  0  0  0  0  0  0  0  0  0  0
    0.7198    3.8081   17.6244 C   0  0  0  0  0  0  0  0  0  0  0  0
    0.0218    5.0055   17.3072 C   0  0  0  0  0  0  0  0  0  0  0  0
   -6.9645    3.5562   13.4680 C   0  0  0  0  0  0  0  0  0  0  0  0
   -6.3613    3.4673   14.7432 C   0  0  0  0  0  0  0  0  0  0  0  0
   -3.8972    3.5752   15.4364 C   0  0  0  0  0  0  0  0  0  0  0  0
   -2.5736    3.7320   14.9425 C   0  0  0  0  0  0  0  0  0  0  0  0
   -2.3511    3.8805   13.5458 C   0  0  0  0  0  0  0  0  0  0  0  0
   -3.4508    3.8744   12.6458 C   0  0  0  0  0  0  0  0  0  0  0  0
   -4.7824    3.7304   13.1470 C   0  0  0  0  0  0  0  0  0  0  0  0
   -5.0044    3.5827   14.5284 C   0  0  0  0  0  0  0  0  0  0  0  0
  1  6  1  0  0  0  0
  2  4  1  0  0  0  0
  3  7  1  0  0  0  0
  4  5  1  0  0  0  0
  6  2  1  0  0  0  0
  7  8  1  0  0  0  0
  8  9  1  0  0  0  0
  9 10  1  0  0  0  0
 10 11  1  0  0  0  0
 10 12  1  0  0  0  0
 11 13  1  0  0  0  0
 13 15  1  0  0  0  0
 14 12  1  0  0  0  0
 15 14  1  0  0  0  0
 16 18  2  0  0  0  0
 16 22  1  0  0  0  0
 17 23  1  0  0  0  0
 17 29  1  0  0  0  0
 18 19  1  0  0  0  0
 18 26  1  0  0  0  0
 19 20  2  0  0  0  0
 20  3  1  0  0  0  0
 20 21  1  0  0  0  0
 21  5  1  0  0  0  0
 21 22  2  0  0  0  0
 23 24  2  0  0  0  0
 24 30  1  0  0  0  0
 25 26  2  0  0  0  0
 25 30  1  0  0  0  0
 26 27  1  0  0  0  0
 27 28  2  0  0  0  0
 28 29  1  0  0  0  0
 29 30  2  0  0  0  0
M  END
>  <CHROM.1>
81.83121863,-84.99361294,-165.71300680,-79.88549686,72.10419878,-68.41875413
-178.67962767,-68.02567243,-88.00157409,67.63882504,130.60056657,0.37582147
1.74348281,16.51265749,-0.54860434,-0.45015827,-0.02485062

>  <Name>
1uts_lig

>  <RI>
0

>  <Rbt.Current_Directory>
/home/itssahil/PROJECTS/Mol_Feturizer/New_Systems/rnas/1uts

>  <Rbt.Executable>
rbdock ($Id: //depot/dev/client3/rdock/2013.1/src/exe/rbdock.cxx#4 $)

>  <Rbt.Library>
libRbt.so (2013.1, Build901 2013/11/27)

>  <Rbt.Parameter_File>
/export/apps/rDock/src/rDock_2013.1_src/data/scripts/dock_solv.prm

>  <Rbt.Receptor>
prm/pocket_docking_3.prm

>  <SCORE>
-23.371

>  <SCORE.INTER>
-20.9179

>  <SCORE.INTER.CONST>
1

>  <SCORE.INTER.POLAR>
-0.8

>  <SCORE.INTER.ROT>
10

>  <SCORE.INTER.SOLV>
9.17424

>  <SCORE.INTER.VDW>
-24.6033

>  <SCORE.INTER.norm>
-0.697262

>  <SCORE.INTRA>
-2.45312

>  <SCORE.INTRA.DIHEDRAL>
-3.52392

>  <SCORE.INTRA.DIHEDRAL.0>
18.0451

>  <SCORE.INTRA.POLAR>
-0.553726

>  <SCORE.INTRA.POLAR.0>
-0.196815

>  <SCORE.INTRA.REPUL>
0.0548993

>  <SCORE.INTRA.REPUL.0>
0

>  <SCORE.INTRA.SOLV>
0.473588

>  <SCORE.INTRA.SOLV.lig_0>
-14.7906

>  <SCORE.INTRA.VDW>
0.680217

>  <SCORE.INTRA.VDW.0>
-0.411701

>  <SCORE.INTRA.norm>
-0.0817707

>  <SCORE.RESTR>
0

>  <SCORE.RESTR.CAVITY>
0

>  <SCORE.RESTR.norm>
0

>  <SCORE.SYSTEM>
0

>  <SCORE.SYSTEM.CONST>
0

>  <SCORE.SYSTEM.DIHEDRAL>
0

>  <SCORE.SYSTEM.SOLV>
0

>  <SCORE.SYSTEM.norm>
0

>  <SCORE.heavy>
30

>  <SCORE.norm>
-0.779032

>  <RMSD>
1.797

$$$$
1uts_lig
 OpenBabel11021811413D
libRbt.so/2013.1/901 2013/11/27
 30 33  0  0  0  0  0  0  0  0999 V2000
    5.6278    6.6543   19.9035 N   0  0  0  0  0  0  0  0  0  0  0  0
    3.2538    6.5491   19.2790 C   0  0  0  0  0  0  0  0  0  0  0  0
    2.4385    2.5341   16.1277 C   0  0  0  0  0  0  0  0  0  0  0  0
    2.0336    5.6281   19.1889 C   0  0  0  0  0  0  0  0  0  0  0  0
    2.2939    4.5842   18.2390 O   0  0  0  0  0  0  0  0  0  0  0  0
    4.4573    5.7551   19.7902 C   0  0  0  0  0  0  0  0  0  0  0  0
    2.0702    1.1171   16.3476 N   0  0  0  0  0  0  0  0  0  0  0  0
    3.3007    0.3019   16.5273 C   0  0  0  0  0  0  0  0  0  0  0  0
    3.3727   -0.2169   17.9664 C   0  0  0  0  0  0  0  0  0  0  0  0
    3.5169    0.9263   18.8955 N   0  0  0  0  0  0  0  0  0  0  0  0
    4.9329    1.3941   18.8844 C   0  0  0  0  0  0  0  0  0  0  0  0
    3.1205    0.5009   20.2677 C   0  0  0  0  0  0  0  0  0  0  0  0
    5.0874    2.5792   19.8513 C   0  0  0  0  0  0  0  0  0  0  0  0
    3.2785    1.6858   21.2376 C   0  0  0  0  0  0  0  0  0  0  0  0
    4.6923    2.1540   21.2241 N   0  0  0  0  0  0  0  0  0  0  0  0
   -1.0764    5.1054   16.6263 C   0  0  0  0  0  0  0  0  0  0  0  0
   -5.5740    3.6869   12.2933 N   0  0  0  0  0  0  0  0  0  0  0  0
   -1.0393    4.1445   15.5878 C   0  0  0  0  0  0  0  0  0  0  0  0
    0.1030    3.3148   15.4315 C   0  0  0  0  0  0  0  0  0  0  0  0
    1.2081    3.4442   16.3169 C   0  0  0  0  0  0  0  0  0  0  0  0
    1.1753    4.4250   17.3533 C   0  0  0  0  0  0  0  0  0  0  0  0
    0.0279    5.2506   17.5068 C   0  0  0  0  0  0  0  0  0  0  0  0
   -6.5266    3.5373   13.3266 C   0  0  0  0  0  0  0  0  0  0  0  0
   -5.9027    3.5507   14.5948 C   0  0  0  0  0  0  0  0  0  0  0  0
   -3.4387    3.8254   15.2409 C   0  0  0  0  0  0  0  0  0  0  0  0
   -2.1320    4.0237   14.7178 C   0  0  0  0  0  0  0  0  0  0  0  0
   -1.9364    4.1062   13.3117 C   0  0  0  0  0  0  0  0  0  0  0  0
   -3.0462    3.9929   12.4313 C   0  0  0  0  0  0  0  0  0  0  0  0
   -4.3614    3.8073   12.9612 C   0  0  0  0  0  0  0  0  0  0  0  0
   -4.5568    3.7249   14.3520 C   0  0  0  0  0  0  0  0  0  0  0  0
  1  6  1  0  0  0  0
  2  4  1  0  0  0  0
  3  7  1  0  0  0  0
  4  5  1  0  0  0  0
  6  2  1  0  0  0  0
  7  8  1  0  0  0  0
  8  9  1  0  0  0  0
  9 10  1  0  0  0  0
 10 11  1  0  0  0  0
 10 12  1  0  0  0  0
 11 13  1  0  0  0  0
 13 15  1  0  0  0  0
 14 12  1  0  0  0  0
 15 14  1  0  0  0  0
 16 18  2  0  0  0  0
 16 22  1  0  0  0  0
 17 23  1  0  0  0  0
 17 29  1  0  0  0  0
 18 19  1  0  0  0  0
 18 26  1  0  0  0  0
 19 20  2  0  0  0  0
 20  3  1  0  0  0  0
 20 21  1  0  0  0  0
 21  5  1  0  0  0  0
 21 22  2  0  0  0  0
 23 24  2  0  0  0  0
 24 30  1  0  0  0  0
 25 26  2  0  0  0  0
 25 30  1  0  0  0  0
 26 27  1  0  0  0  0
 27 28  2  0  0  0  0
 28 29  1  0  0  0  0
 29 30  2  0  0  0  0
M  END
>  <CHROM.1>
62.17256750,-62.54115117,-164.79609280,-133.46624783,-178.80775562,112.43853583
-64.68697216,-78.42621722,-53.66998221,-63.97449540,179.75645988,0.73890886
3.38359817,16.98885467,0.02883076,-0.61771468,0.18931563

>  <Name>
1uts_lig

>  <RI>
0

>  <Rbt.Current_Directory>
/home/itssahil/PROJECTS/Mol_Feturizer/New_Systems/rnas/1uts

>  <Rbt.Executable>
rbdock ($Id: //depot/dev/client3/rdock/2013.1/src/exe/rbdock.cxx#4 $)

>  <Rbt.Library>
libRbt.so (2013.1, Build901 2013/11/27)

>  <Rbt.Parameter_File>
/export/apps/rDock/src/rDock_2013.1_src/data/scripts/dock_solv.prm

>  <Rbt.Receptor>
prm/pocket_docking_4.prm

>  <SCORE>
-19.4457

>  <SCORE.INTER>
-21.4101

>  <SCORE.INTER.CONST>
1

>  <SCORE.INTER.POLAR>
-0.632456

>  <SCORE.INTER.ROT>
10

>  <SCORE.INTER.SOLV>
9.7841

>  <SCORE.INTER.VDW>
-25.6933

>  <SCORE.INTER.norm>
-0.71367

>  <SCORE.INTRA>
1.96439

>  <SCORE.INTRA.DIHEDRAL>
-2.93251

>  <SCORE.INTRA.DIHEDRAL.0>
18.0451

>  <SCORE.INTRA.POLAR>
0.196815

>  <SCORE.INTRA.POLAR.0>
-0.196815

>  <SCORE.INTRA.REPUL>
0

>  <SCORE.INTRA.REPUL.0>
0

>  <SCORE.INTRA.SOLV>
0.0196341

>  <SCORE.INTRA.SOLV.lig_0>
-14.7906

>  <SCORE.INTRA.VDW>
2.75166

>  <SCORE.INTRA.VDW.0>
-0.411701

>  <SCORE.INTRA.norm>
0.0654796

>  <SCORE.RESTR>
0

>  <SCORE.RESTR.CAVITY>
0

>  <SCORE.RESTR.norm>
0

>  <SCORE.SYSTEM>
0

>  <SCORE.SYSTEM.CONST>
0

>  <SCORE.SYSTEM.DIHEDRAL>
0

>  <SCORE.SYSTEM.SOLV>
0

>  <SCORE.SYSTEM.norm>
0

>  <SCORE.heavy>
30

>  <SCORE.norm>
-0.648191

>  <RMSD>
1.809

$$$$
1uts_lig
 OpenBabel11021811413D
libRbt.so/2013.1/901 2013/11/27
 30 33  0  0  0  0  0  0  0  0999 V2000
    6.0697    5.7791   18.4319 N   0  0  0  0  0  0  0  0  0  0  0  0
    3.7200    6.0065   19.1135 C   0  0  0  0  0  0  0  0  0  0  0  0
    2.4104    3.0023   15.9230 C   0  0  0  0  0  0  0  0  0  0  0  0
    2.3003    5.9132   18.5471 C   0  0  0  0  0  0  0  0  0  0  0  0
    1.9376    4.5329   18.3959 O   0  0  0  0  0  0  0  0  0  0  0  0
    4.6944    5.2974   18.1711 C   0  0  0  0  0  0  0  0  0  0  0  0
    2.4114    1.5926   16.3756 N   0  0  0  0  0  0  0  0  0  0  0  0
    3.7914    1.1895   16.7554 C   0  0  0  0  0  0  0  0  0  0  0  0
    4.1658    1.8255   18.0973 C   0  0  0  0  0  0  0  0  0  0  0  0
    5.5029    1.3461   18.5136 N   0  0  0  0  0  0  0  0  0  0  0  0
    5.4189   -0.0999   18.8685 C   0  0  0  0  0  0  0  0  0  0  0  0
    5.9713    2.1423   19.6831 C   0  0  0  0  0  0  0  0  0  0  0  0
    6.8052   -0.6005   19.3052 C   0  0  0  0  0  0  0  0  0  0  0  0
    7.3578    1.6393   20.1236 C   0  0  0  0  0  0  0  0  0  0  0  0
    7.2737    0.1946   20.4756 N   0  0  0  0  0  0  0  0  0  0  0  0
   -1.4548    4.8825   16.7833 C   0  0  0  0  0  0  0  0  0  0  0  0
   -5.6453    3.7833   12.0718 N   0  0  0  0  0  0  0  0  0  0  0  0
   -1.2630    4.1707   15.5750 C   0  0  0  0  0  0  0  0  0  0  0  0
   -0.0078    3.5642   15.3023 C   0  0  0  0  0  0  0  0  0  0  0  0
    1.0557    3.6671   16.2405 C   0  0  0  0  0  0  0  0  0  0  0  0
    0.8652    4.3992   17.4509 C   0  0  0  0  0  0  0  0  0  0  0  0
   -0.3944    5.0015   17.7199 C   0  0  0  0  0  0  0  0  0  0  0  0
   -6.6207    3.4706   13.0458 C   0  0  0  0  0  0  0  0  0  0  0  0
   -6.0420    3.3906   14.3328 C   0  0  0  0  0  0  0  0  0  0  0  0
   -3.6240    3.7451   15.1017 C   0  0  0  0  0  0  0  0  0  0  0  0
   -2.3157    4.0747   14.6542 C   0  0  0  0  0  0  0  0  0  0  0  0
   -2.0784    4.3136   13.2725 C   0  0  0  0  0  0  0  0  0  0  0  0
   -3.1483    4.2251   12.3414 C   0  0  0  0  0  0  0  0  0  0  0  0
   -4.4661    3.9069   12.7966 C   0  0  0  0  0  0  0  0  0  0  0  0
   -4.7027    3.6697   14.1631 C   0  0  0  0  0  0  0  0  0  0  0  0
  1  6  1  0  0  0  0
  2  4  1  0  0  0  0
  3  7  1  0  0  0  0
  4  5  1  0  0  0  0
  6  2  1  0  0  0  0
  7  8  1  0  0  0  0
  8  9  1  0  0  0  0
  9 10  1  0  0  0  0
 10 11  1  0  0  0  0
 10 12  1  0  0  0  0
 11 13  1  0  0  0  0
 13 15  1  0  0  0  0
 14 12  1  0  0  0  0
 15 14  1  0  0  0  0
 16 18  2  0  0  0  0
 16 22  1  0  0  0  0
 17 23  1  0  0  0  0
 17 29  1  0  0  0  0
 18 19  1  0  0  0  0
 18 26  1  0  0  0  0
 19 20  2  0  0  0  0
 20  3  1  0  0  0  0
 20 21  1  0  0  0  0
 21  5  1  0  0  0  0
 21 22  2  0  0  0  0
 23 24  2  0  0  0  0
 24 30  1  0  0  0  0
 25 26  2  0  0  0  0
 25 30  1  0  0  0  0
 26 27  1  0  0  0  0
 27 28  2  0  0  0  0
 28 29  1  0  0  0  0
 29 30  2  0  0  0  0
M  END
>  <CHROM.1>
54.62273654,58.79015089,-149.72701632,-159.10683583,159.97544326,74.19720190
176.13375381,-69.07940817,-45.94963858,-87.38343439,117.46301249,1.23443700
3.29544054,16.69900136,-0.05408757,-0.51582722,0.22730113

>  <Name>
1uts_lig

>  <RI>
0

>  <Rbt.Current_Directory>
/home/itssahil/PROJECTS/Mol_Feturizer/New_Systems/rnas/1uts

>  <Rbt.Executable>
rbdock ($Id: //depot/dev/client3/rdock/2013.1/src/exe/rbdock.cxx#4 $)

>  <Rbt.Library>
libRbt.so (2013.1, Build901 2013/11/27)

>  <Rbt.Parameter_File>
/export/apps/rDock/src/rDock_2013.1_src/data/scripts/dock_solv.prm

>  <Rbt.Receptor>
prm/pocket_docking_4.prm

>  <SCORE>
-22.9448

>  <SCORE.INTER>
-21.1756

>  <SCORE.INTER.CONST>
1

>  <SCORE.INTER.POLAR>
-0.625877

>  <SCORE.INTER.ROT>
10

>  <SCORE.INTER.SOLV>
10.266

>  <SCORE.INTER.VDW>
-25.7195

>  <SCORE.INTER.norm>
-0.705852

>  <SCORE.INTRA>
-1.77051

>  <SCORE.INTRA.DIHEDRAL>
-5.1034

>  <SCORE.INTRA.DIHEDRAL.0>
18.0451

>  <SCORE.INTRA.POLAR>
0.196815

>  <SCORE.INTRA.POLAR.0>
-0.196815

>  <SCORE.INTRA.REPUL>
0

>  <SCORE.INTRA.REPUL.0>
0

>  <SCORE.INTRA.SOLV>
-0.262666

>  <SCORE.INTRA.SOLV.lig_0>
-14.7906

>  <SCORE.INTRA.VDW>
0.243348

>  <SCORE.INTRA.VDW.0>
-0.411701

>  <SCORE.INTRA.norm>
-0.0590171

>  <SCORE.RESTR>
0.00129306

>  <SCORE.RESTR.CAVITY>
0.00129306

>  <SCORE.RESTR.norm>
4.31019e-05

>  <SCORE.SYSTEM>
0

>  <SCORE.SYSTEM.CONST>
0

>  <SCORE.SYSTEM.DIHEDRAL>
0

>  <SCORE.SYSTEM.SOLV>
0

>  <SCORE.SYSTEM.norm>
0

>  <SCORE.heavy>
30

>  <SCORE.norm>
-0.764826

>  <RMSD>
1.820

$$$$
1uts_lig
 OpenBabel11021811413D
libRbt.so/2013.1/901 2013/11/27
 30 33  0  0  0  0  0  0  0  0999 V2000
    2.4974    4.9999   22.1975 N   0  0  0  0  0  0  0  0  0  0  0  0
    3.4303    4.2795   20.0417 C   0  0  0  0  0  0  0  0  0  0  0  0
    2.5710    3.7667   15.7144 C   0  0  0  0  0  0  0  0  0  0  0  0
    2.0831    4.2271   19.3155 C   0  0  0  0  0  0  0  0  0  0  0  0
    2.0795    5.1870   18.2486 O   0  0  0  0  0  0  0  0  0  0  0  0
    3.2328    3.9124   21.5135 C   0  0  0  0  0  0  0  0  0  0  0  0
    2.8006    2.3946   16.2213 N   0  0  0  0  0  0  0  0  0  0  0  0
    4.0674    2.3533   16.9987 C   0  0  0  0  0  0  0  0  0  0  0  0
    4.7203    0.9758   16.8521 C   0  0  0  0  0  0  0  0  0  0  0  0
    3.9422   -0.0224   17.6196 N   0  0  0  0  0  0  0  0  0  0  0  0
    4.8084   -1.1993   17.9168 C   0  0  0  0  0  0  0  0  0  0  0  0
    2.7529   -0.4396   16.8243 C   0  0  0  0  0  0  0  0  0  0  0  0
    4.0023   -2.2400   18.7107 C   0  0  0  0  0  0  0  0  0  0  0  0
    1.9469   -1.4845   17.6167 C   0  0  0  0  0  0  0  0  0  0  0  0
    2.8134   -2.6586   17.9152 N   0  0  0  0  0  0  0  0  0  0  0  0
   -1.4234    5.1716   16.8483 C   0  0  0  0  0  0  0  0  0  0  0  0
   -5.4394    3.7130   11.9743 N   0  0  0  0  0  0  0  0  0  0  0  0
   -1.2262    4.5089   15.6133 C   0  0  0  0  0  0  0  0  0  0  0  0
    0.0709    4.0566   15.2518 C   0  0  0  0  0  0  0  0  0  0  0  0
    1.1714    4.2646   16.1279 C   0  0  0  0  0  0  0  0  0  0  0  0
    0.9733    4.9476   17.3655 C   0  0  0  0  0  0  0  0  0  0  0  0
   -0.3279    5.3953   17.7234 C   0  0  0  0  0  0  0  0  0  0  0  0
   -4.7155    4.0178   10.7992 C   0  0  0  0  0  0  0  0  0  0  0  0
   -3.3823    4.3737   11.1051 C   0  0  0  0  0  0  0  0  0  0  0  0
   -2.1621    4.5022   13.3542 C   0  0  0  0  0  0  0  0  0  0  0  0
   -2.3157    4.3087   14.7540 C   0  0  0  0  0  0  0  0  0  0  0  0
   -3.5738    3.9052   15.2800 C   0  0  0  0  0  0  0  0  0  0  0  0
   -4.6750    3.6937   14.4070 C   0  0  0  0  0  0  0  0  0  0  0  0
   -4.5136    3.8758   12.9978 C   0  0  0  0  0  0  0  0  0  0  0  0
   -3.2698    4.2755   12.4756 C   0  0  0  0  0  0  0  0  0  0  0  0
  1  6  1  0  0  0  0
  2  4  1  0  0  0  0
  3  7  1  0  0  0  0
  4  5  1  0  0  0  0
  6  2  1  0  0  0  0
  7  8  1  0  0  0  0
  8  9  1  0  0  0  0
  9 10  1  0  0  0  0
 10 11  1  0  0  0  0
 10 12  1  0  0  0  0
 11 13  1  0  0  0  0
 13 15  1  0  0  0  0
 14 12  1  0  0  0  0
 15 14  1  0  0  0  0
 16 18  2  0  0  0  0
 16 22  1  0  0  0  0
 17 23  1  0  0  0  0
 17 29  1  0  0  0  0
 18 19  1  0  0  0  0
 18 26  1  0  0  0  0
 19 20  2  0  0  0  0
 20  3  1  0  0  0  0
 20 21  1  0  0  0  0
 21  5  1  0  0  0  0
 21 22  2  0  0  0  0
 23 24  2  0  0  0  0
 24 30  1  0  0  0  0
 25 26  2  0  0  0  0
 25 30  1  0  0  0  0
 26 27  1  0  0  0  0
 27 28  2  0  0  0  0
 28 29  1  0  0  0  0
 29 30  2  0  0  0  0
M  END
>  <CHROM.1>
-178.65426557,149.30571010,-126.47896270,166.46966497,-70.00034315,-148.18719110
-72.24897486,-158.56804811,138.46594189,-91.73625589,-100.55937525,0.58055117
2.88711318,16.46130626,0.03779991,-0.72970704,0.55351415

>  <Name>
1uts_lig

>  <RI>
0

>  <Rbt.Current_Directory>
/home/itssahil/PROJECTS/Mol_Feturizer/New_Systems/rnas/1uts

>  <Rbt.Executable>
rbdock ($Id: //depot/dev/client3/rdock/2013.1/src/exe/rbdock.cxx#4 $)

>  <Rbt.Library>
libRbt.so (2013.1, Build901 2013/11/27)

>  <Rbt.Parameter_File>
/export/apps/rDock/src/rDock_2013.1_src/data/scripts/dock_solv.prm

>  <Rbt.Receptor>
prm/pocket_docking_2.prm

>  <SCORE>
-23.6552

>  <SCORE.INTER>
-24.6124

>  <SCORE.INTER.CONST>
1

>  <SCORE.INTER.POLAR>
-0.789242

>  <SCORE.INTER.ROT>
10

>  <SCORE.INTER.SOLV>
10.7736

>  <SCORE.INTER.VDW>
-27.6353

>  <SCORE.INTER.norm>
-0.820415

>  <SCORE.INTRA>
0.668787

>  <SCORE.INTRA.DIHEDRAL>
0.509836

>  <SCORE.INTRA.DIHEDRAL.0>
18.0451

>  <SCORE.INTRA.POLAR>
0.196815

>  <SCORE.INTRA.POLAR.0>
-0.196815

>  <SCORE.INTRA.REPUL>
0

>  <SCORE.INTRA.REPUL.0>
0

>  <SCORE.INTRA.SOLV>
-0.0259763

>  <SCORE.INTRA.SOLV.lig_0>
-14.7906

>  <SCORE.INTRA.VDW>
-0.242315

>  <SCORE.INTRA.VDW.0>
-0.411701

>  <SCORE.INTRA.norm>
0.0222929

>  <SCORE.RESTR>
0.288479

>  <SCORE.RESTR.CAVITY>
0.288479

>  <SCORE.RESTR.norm>
0.00961596

>  <SCORE.SYSTEM>
0

>  <SCORE.SYSTEM.CONST>
0

>  <SCORE.SYSTEM.DIHEDRAL>
0

>  <SCORE.SYSTEM.SOLV>
0

>  <SCORE.SYSTEM.norm>
0

>  <SCORE.heavy>
30

>  <SCORE.norm>
-0.788506

>  <RMSD>
1.847

$$$$
1uts_lig
 OpenBabel11021811413D
libRbt.so/2013.1/901 2013/11/27
 30 33  0  0  0  0  0  0  0  0999 V2000
    1.9410    5.7775   21.5328 N   0  0  0  0  0  0  0  0  0  0  0  0
    3.5419    5.5998   19.6773 C   0  0  0  0  0  0  0  0  0  0  0  0
    2.5189    2.7247   15.8014 C   0  0  0  0  0  0  0  0  0  0  0  0
    2.4227    5.5524   18.6331 C   0  0  0  0  0  0  0  0  0  0  0  0
    2.1134    4.1845   18.3284 O   0  0  0  0  0  0  0  0  0  0  0  0
    3.0516    4.9686   20.9817 C   0  0  0  0  0  0  0  0  0  0  0  0
    2.9051    1.7772   16.8716 N   0  0  0  0  0  0  0  0  0  0  0  0
    4.2046    1.1398   16.5313 C   0  0  0  0  0  0  0  0  0  0  0  0
    4.6699    0.2593   17.6947 C   0  0  0  0  0  0  0  0  0  0  0  0
    4.0230   -1.0685   17.5970 N   0  0  0  0  0  0  0  0  0  0  0  0
    2.6817   -1.0116   18.2463 C   0  0  0  0  0  0  0  0  0  0  0  0
    4.8816   -2.0869   18.2653 C   0  0  0  0  0  0  0  0  0  0  0  0
    2.0083   -2.3901   18.1502 C   0  0  0  0  0  0  0  0  0  0  0  0
    4.2064   -3.4671   18.1729 C   0  0  0  0  0  0  0  0  0  0  0  0
    2.8659   -3.4089   18.8195 N   0  0  0  0  0  0  0  0  0  0  0  0
   -1.2801    4.6902   16.7599 C   0  0  0  0  0  0  0  0  0  0  0  0
   -5.2170    3.8830   11.6766 N   0  0  0  0  0  0  0  0  0  0  0  0
   -1.1200    4.0141   15.5268 C   0  0  0  0  0  0  0  0  0  0  0  0
    0.1139    3.3798   15.2223 C   0  0  0  0  0  0  0  0  0  0  0  0
    1.1877    3.4189   16.1536 C   0  0  0  0  0  0  0  0  0  0  0  0
    1.0296    4.1151   17.3895 C   0  0  0  0  0  0  0  0  0  0  0  0
   -0.2088    4.7456   17.6902 C   0  0  0  0  0  0  0  0  0  0  0  0
   -4.4112    4.1784   10.5536 C   0  0  0  0  0  0  0  0  0  0  0  0
   -3.0643    4.3729   10.9353 C   0  0  0  0  0  0  0  0  0  0  0  0
   -1.9445    4.2393   13.2358 C   0  0  0  0  0  0  0  0  0  0  0  0
   -2.1827    3.9810   14.6131 C   0  0  0  0  0  0  0  0  0  0  0  0
   -3.4990    3.6823   15.0609 C   0  0  0  0  0  0  0  0  0  0  0  0
   -4.5738    3.6400   14.1322 C   0  0  0  0  0  0  0  0  0  0  0  0
   -4.3285    3.8866   12.7451 C   0  0  0  0  0  0  0  0  0  0  0  0
   -3.0271    4.1829   12.3003 C   0  0  0  0  0  0  0  0  0  0  0  0
  1  6  1  0  0  0  0
  2  4  1  0  0  0  0
  3  7  1  0  0  0  0
  4  5  1  0  0  0  0
  6  2  1  0  0  0  0
  7  8  1  0  0  0  0
  8  9  1  0  0  0  0
  9 10  1  0  0  0  0
 10 11  1  0  0  0  0
 10 12  1  0  0  0  0
 11 13  1  0  0  0  0
 13 15  1  0  0  0  0
 14 12  1  0  0  0  0
 15 14  1  0  0  0  0
 16 18  2  0  0  0  0
 16 22  1  0  0  0  0
 17 23  1  0  0  0  0
 17 29  1  0  0  0  0
 18 19  1  0  0  0  0
 18 26  1  0  0  0  0
 19 20  2  0  0  0  0
 20  3  1  0  0  0  0
 20 21  1  0  0  0  0
 21  5  1  0  0  0  0
 21 22  2  0  0  0  0
 23 24  2  0  0  0  0
 24 30  1  0  0  0  0
 25 26  2  0  0  0  0
 25 30  1  0  0  0  0
 26 27  1  0  0  0  0
 27 28  2  0  0  0  0
 28 29  1  0  0  0  0
 29 30  2  0  0  0  0
M  END
>  <CHROM.1>
-178.52417422,-63.81349723,-178.73224957,177.74257947,-64.07020845,174.74736183
83.86166035,-85.21268440,134.67783397,-126.15158997,123.71516912,0.65864024
2.55395290,16.45392981,-0.15135251,-0.76876143,0.41113735

>  <Name>
1uts_lig

>  <RI>
0

>  <Rbt.Current_Directory>
/home/itssahil/PROJECTS/Mol_Feturizer/New_Systems/rnas/1uts

>  <Rbt.Executable>
rbdock ($Id: //depot/dev/client3/rdock/2013.1/src/exe/rbdock.cxx#4 $)

>  <Rbt.Library>
libRbt.so (2013.1, Build901 2013/11/27)

>  <Rbt.Parameter_File>
/export/apps/rDock/src/rDock_2013.1_src/data/scripts/dock_solv.prm

>  <Rbt.Receptor>
prm/pocket_docking_2.prm

>  <SCORE>
-25.6122

>  <SCORE.INTER>
-21.42

>  <SCORE.INTER.CONST>
1

>  <SCORE.INTER.POLAR>
-0.723822

>  <SCORE.INTER.ROT>
10

>  <SCORE.INTER.SOLV>
9.26124

>  <SCORE.INTER.VDW>
-25.221

>  <SCORE.INTER.norm>
-0.714

>  <SCORE.INTRA>
-4.63479

>  <SCORE.INTRA.DIHEDRAL>
-8.06721

>  <SCORE.INTRA.DIHEDRAL.0>
18.0451

>  <SCORE.INTRA.POLAR>
-0.341859

>  <SCORE.INTRA.POLAR.0>
-0.196815

>  <SCORE.INTRA.REPUL>
0

>  <SCORE.INTRA.REPUL.0>
0

>  <SCORE.INTRA.SOLV>
0.108772

>  <SCORE.INTRA.SOLV.lig_0>
-14.7906

>  <SCORE.INTRA.VDW>
0.506754

>  <SCORE.INTRA.VDW.0>
-0.411701

>  <SCORE.INTRA.norm>
-0.154493

>  <SCORE.RESTR>
0.442577

>  <SCORE.RESTR.CAVITY>
0.442577

>  <SCORE.RESTR.norm>
0.0147526

>  <SCORE.SYSTEM>
0

>  <SCORE.SYSTEM.CONST>
0

>  <SCORE.SYSTEM.DIHEDRAL>
0

>  <SCORE.SYSTEM.SOLV>
0

>  <SCORE.SYSTEM.norm>
0

>  <SCORE.heavy>
30

>  <SCORE.norm>
-0.85374

>  <RMSD>
1.849

$$$$
1uts_lig
 OpenBabel11021811413D
libRbt.so/2013.1/901 2013/11/27
 30 33  0  0  0  0  0  0  0  0999 V2000
    3.8092    3.5886   19.8864 N   0  0  0  0  0  0  0  0  0  0  0  0
    3.0748    5.6298   18.7326 C   0  0  0  0  0  0  0  0  0  0  0  0
    1.7428    2.6023   17.6800 C   0  0  0  0  0  0  0  0  0  0  0  0
    1.8444    5.8578   19.6154 C   0  0  0  0  0  0  0  0  0  0  0  0
    1.0915    4.6393   19.7067 O   0  0  0  0  0  0  0  0  0  0  0  0
    4.1861    4.9827   19.5612 C   0  0  0  0  0  0  0  0  0  0  0  0
    2.4633    2.5373   16.3882 N   0  0  0  0  0  0  0  0  0  0  0  0
    3.5866    1.5684   16.4894 C   0  0  0  0  0  0  0  0  0  0  0  0
    3.0348    0.1415   16.5602 C   0  0  0  0  0  0  0  0  0  0  0  0
    3.7668   -0.6188   17.5981 N   0  0  0  0  0  0  0  0  0  0  0  0
    5.0948   -1.0327   17.0606 C   0  0  0  0  0  0  0  0  0  0  0  0
    2.9685   -1.8147   17.9898 C   0  0  0  0  0  0  0  0  0  0  0  0
    5.8565   -1.8260   18.1347 C   0  0  0  0  0  0  0  0  0  0  0  0
    3.7320   -2.6120   19.0626 C   0  0  0  0  0  0  0  0  0  0  0  0
    5.0592   -3.0229   18.5259 N   0  0  0  0  0  0  0  0  0  0  0  0
   -1.7611    5.2092   17.3047 C   0  0  0  0  0  0  0  0  0  0  0  0
   -4.6423    3.8373   11.6727 N   0  0  0  0  0  0  0  0  0  0  0  0
   -1.4732    4.2551   16.2998 C   0  0  0  0  0  0  0  0  0  0  0  0
   -0.3359    3.4138   16.4274 C   0  0  0  0  0  0  0  0  0  0  0  0
    0.5126    3.5247   17.5629 C   0  0  0  0  0  0  0  0  0  0  0  0
    0.2296    4.4987   18.5672 C   0  0  0  0  0  0  0  0  0  0  0  0
   -0.9120    5.3360   18.4356 C   0  0  0  0  0  0  0  0  0  0  0  0
   -3.6142    4.0811   10.7339 C   0  0  0  0  0  0  0  0  0  0  0  0
   -2.3821    4.3191   11.3844 C   0  0  0  0  0  0  0  0  0  0  0  0
   -1.7846    4.3355   13.8757 C   0  0  0  0  0  0  0  0  0  0  0  0
   -2.3136    4.1525   15.1823 C   0  0  0  0  0  0  0  0  0  0  0  0
   -3.6944    3.8584   15.3532 C   0  0  0  0  0  0  0  0  0  0  0  0
   -4.5433    3.7455   14.2191 C   0  0  0  0  0  0  0  0  0  0  0  0
   -4.0053    3.9165   12.9052 C   0  0  0  0  0  0  0  0  0  0  0  0
   -2.6396    4.2080   12.7342 C   0  0  0  0  0  0  0  0  0  0  0  0
  1  6  1  0  0  0  0
  2  4  1  0  0  0  0
  3  7  1  0  0  0  0
  4  5  1  0  0  0  0
  6  2  1  0  0  0  0
  7  8  1  0  0  0  0
  8  9  1  0  0  0  0
  9 10  1  0  0  0  0
 10 11  1  0  0  0  0
 10 12  1  0  0  0  0
 11 13  1  0  0  0  0
 13 15  1  0  0  0  0
 14 12  1  0  0  0  0
 15 14  1  0  0  0  0
 16 18  2  0  0  0  0
 16 22  1  0  0  0  0
 17 23  1  0  0  0  0
 17 29  1  0  0  0  0
 18 19  1  0  0  0  0
 18 26  1  0  0  0  0
 19 20  2  0  0  0  0
 20  3  1  0  0  0  0
 20 21  1  0  0  0  0
 21  5  1  0  0  0  0
 21 22  2  0  0  0  0
 23 24  2  0  0  0  0
 24 30  1  0  0  0  0
 25 26  2  0  0  0  0
 25 30  1  0  0  0  0
 26 27  1  0  0  0  0
 27 28  2  0  0  0  0
 28 29  1  0  0  0  0
 29 30  2  0  0  0  0
M  END
>  <CHROM.1>
-163.35206399,-82.01977211,-175.88042208,-83.17476839,70.12651960,70.98483028
-136.47251244,-77.75474647,121.61271914,44.74230963,108.35063587,0.77087742
2.68617152,16.62518214,-0.08364036,-0.72059809,0.59938119

>  <Name>
1uts_lig

>  <RI>
0

>  <Rbt.Current_Directory>
/home/itssahil/PROJECTS/Mol_Feturizer/New_Systems/rnas/1uts

>  <Rbt.Executable>
rbdock ($Id: //depot/dev/client3/rdock/2013.1/src/exe/rbdock.cxx#4 $)

>  <Rbt.Library>
libRbt.so (2013.1, Build901 2013/11/27)

>  <Rbt.Parameter_File>
/export/apps/rDock/src/rDock_2013.1_src/data/scripts/dock_solv.prm

>  <Rbt.Receptor>
prm/pocket_docking_2.prm

>  <SCORE>
-18.2555

>  <SCORE.INTER>
-17.1734

>  <SCORE.INTER.CONST>
1

>  <SCORE.INTER.POLAR>
0

>  <SCORE.INTER.ROT>
10

>  <SCORE.INTER.SOLV>
8.79161

>  <SCORE.INTER.VDW>
-24.6461

>  <SCORE.INTER.norm>
-0.572447

>  <SCORE.INTRA>
-1.09999

>  <SCORE.INTRA.DIHEDRAL>
1.11818

>  <SCORE.INTRA.DIHEDRAL.0>
18.0451

>  <SCORE.INTRA.POLAR>
-0.519323

>  <SCORE.INTRA.POLAR.0>
-0.196815

>  <SCORE.INTRA.REPUL>
0

>  <SCORE.INTRA.REPUL.0>
0

>  <SCORE.INTRA.SOLV>
0.301451

>  <SCORE.INTRA.SOLV.lig_0>
-14.7906

>  <SCORE.INTRA.VDW>
-0.0441104

>  <SCORE.INTRA.VDW.0>
-0.411701

>  <SCORE.INTRA.norm>
-0.0366664

>  <SCORE.RESTR>
0.0178817

>  <SCORE.RESTR.CAVITY>
0.0178817

>  <SCORE.RESTR.norm>
0.000596056

>  <SCORE.SYSTEM>
0

>  <SCORE.SYSTEM.CONST>
0

>  <SCORE.SYSTEM.DIHEDRAL>
0

>  <SCORE.SYSTEM.SOLV>
0

>  <SCORE.SYSTEM.norm>
0

>  <SCORE.heavy>
30

>  <SCORE.norm>
-0.608518

>  <RMSD>
1.875

$$$$
1uts_lig
 OpenBabel11021811413D
libRbt.so/2013.1/901 2013/11/27
 30 33  0  0  0  0  0  0  0  0999 V2000
    3.9699    5.4896   22.0768 N   0  0  0  0  0  0  0  0  0  0  0  0
    4.5451    3.7710   20.4177 C   0  0  0  0  0  0  0  0  0  0  0  0
    3.0635    1.6341   16.3159 C   0  0  0  0  0  0  0  0  0  0  0  0
    3.2316    3.7877   19.6305 C   0  0  0  0  0  0  0  0  0  0  0  0
    3.5192    3.8315   18.2251 O   0  0  0  0  0  0  0  0  0  0  0  0
    4.2600    4.0494   21.8946 C   0  0  0  0  0  0  0  0  0  0  0  0
    2.4298    0.3201   16.5689 N   0  0  0  0  0  0  0  0  0  0  0  0
    3.1461   -0.3779   17.6691 C   0  0  0  0  0  0  0  0  0  0  0  0
    4.5037   -0.8788   17.1674 C   0  0  0  0  0  0  0  0  0  0  0  0
    5.0335   -1.8913   18.1081 N   0  0  0  0  0  0  0  0  0  0  0  0
    4.0738   -3.0292   18.1986 C   0  0  0  0  0  0  0  0  0  0  0  0
    5.2282   -1.2675   19.4475 C   0  0  0  0  0  0  0  0  0  0  0  0
    4.6190   -4.0813   19.1779 C   0  0  0  0  0  0  0  0  0  0  0  0
    5.7706   -2.3211   20.4300 C   0  0  0  0  0  0  0  0  0  0  0  0
    4.8128   -3.4582   20.5179 N   0  0  0  0  0  0  0  0  0  0  0  0
    0.1429    4.8525   16.8873 C   0  0  0  0  0  0  0  0  0  0  0  0
   -4.7229    3.8539   12.7359 N   0  0  0  0  0  0  0  0  0  0  0  0
   -0.1059    3.8245   15.9468 C   0  0  0  0  0  0  0  0  0  0  0  0
    0.8449    2.7849   15.7662 C   0  0  0  0  0  0  0  0  0  0  0  0
    2.0445    2.7716   16.5295 C   0  0  0  0  0  0  0  0  0  0  0  0
    2.3009    3.8180   17.4657 C   0  0  0  0  0  0  0  0  0  0  0  0
    1.3441    4.8545   17.6444 C   0  0  0  0  0  0  0  0  0  0  0  0
   -4.0658    3.8454   11.4845 C   0  0  0  0  0  0  0  0  0  0  0  0
   -2.6623    3.8584   11.6508 C   0  0  0  0  0  0  0  0  0  0  0  0
   -1.2323    3.8615   13.7767 C   0  0  0  0  0  0  0  0  0  0  0  0
   -1.2903    3.8450   15.1968 C   0  0  0  0  0  0  0  0  0  0  0  0
   -2.5509    3.8424   15.8548 C   0  0  0  0  0  0  0  0  0  0  0  0
   -3.7508    3.8538   15.0933 C   0  0  0  0  0  0  0  0  0  0  0  0
   -3.6892    3.8564   13.6646 C   0  0  0  0  0  0  0  0  0  0  0  0
   -2.4429    3.8596   13.0119 C   0  0  0  0  0  0  0  0  0  0  0  0
  1  6  1  0  0  0  0
  2  4  1  0  0  0  0
  3  7  1  0  0  0  0
  4  5  1  0  0  0  0
  6  2  1  0  0  0  0
  7  8  1  0  0  0  0
  8  9  1  0  0  0  0
  9 10  1  0  0  0  0
 10 11  1  0  0  0  0
 10 12  1  0  0  0  0
 11 13  1  0  0  0  0
 13 15  1  0  0  0  0
 14 12  1  0  0  0  0
 15 14  1  0  0  0  0
 16 18  2  0  0  0  0
 16 22  1  0  0  0  0
 17 23  1  0  0  0  0
 17 29  1  0  0  0  0
 18 19  1  0  0  0  0
 18 26  1  0  0  0  0
 19 20  2  0  0  0  0
 20  3  1  0  0  0  0
 20 21  1  0  0  0  0
 21  5  1  0  0  0  0
 21 22  2  0  0  0  0
 23 24  2  0  0  0  0
 24 30  1  0  0  0  0
 25 26  2  0  0  0  0
 25 30  1  0  0  0  0
 26 27  1  0  0  0  0
 27 28  2  0  0  0  0
 28 29  1  0  0  0  0
 29 30  2  0  0  0  0
M  END
>  <CHROM.1>
64.36410600,167.00433536,-120.26454110,178.73287280,-75.23203219,-73.00365512
-163.59373960,59.58342488,122.21908441,-58.10629347,-120.29679736,1.56623936
2.01467325,17.09556205,-0.20293738,-0.77107514,0.38490711

>  <Name>
1uts_lig

>  <RI>
0

>  <Rbt.Current_Directory>
/home/itssahil/PROJECTS/Mol_Feturizer/New_Systems/rnas/1uts

>  <Rbt.Executable>
rbdock ($Id: //depot/dev/client3/rdock/2013.1/src/exe/rbdock.cxx#4 $)

>  <Rbt.Library>
libRbt.so (2013.1, Build901 2013/11/27)

>  <Rbt.Parameter_File>
/export/apps/rDock/src/rDock_2013.1_src/data/scripts/dock_solv.prm

>  <Rbt.Receptor>
prm/pocket_docking_2.prm

>  <SCORE>
-11.1888

>  <SCORE.INTER>
-13.4827

>  <SCORE.INTER.CONST>
1

>  <SCORE.INTER.POLAR>
0

>  <SCORE.INTER.ROT>
10

>  <SCORE.INTER.SOLV>
8.26017

>  <SCORE.INTER.VDW>
-22.0085

>  <SCORE.INTER.norm>
-0.449422

>  <SCORE.INTRA>
2.29021

>  <SCORE.INTRA.DIHEDRAL>
-3.84366

>  <SCORE.INTRA.DIHEDRAL.0>
18.0451

>  <SCORE.INTRA.POLAR>
0.196815

>  <SCORE.INTRA.POLAR.0>
-0.196815

>  <SCORE.INTRA.REPUL>
0

>  <SCORE.INTRA.REPUL.0>
0

>  <SCORE.INTRA.SOLV>
-0.481037

>  <SCORE.INTRA.SOLV.lig_0>
-14.7906

>  <SCORE.INTRA.VDW>
3.78338

>  <SCORE.INTRA.VDW.0>
-0.411701

>  <SCORE.INTRA.norm>
0.0763402

>  <SCORE.RESTR>
0.00363454

>  <SCORE.RESTR.CAVITY>
0.00363454

>  <SCORE.RESTR.norm>
0.000121151

>  <SCORE.SYSTEM>
0

>  <SCORE.SYSTEM.CONST>
0

>  <SCORE.SYSTEM.DIHEDRAL>
0

>  <SCORE.SYSTEM.SOLV>
0

>  <SCORE.SYSTEM.norm>
0

>  <SCORE.heavy>
30

>  <SCORE.norm>
-0.372961

>  <RMSD>
1.902

$$$$
1uts_lig
 OpenBabel11021811413D
libRbt.so/2013.1/901 2013/11/27
 30 33  0  0  0  0  0  0  0  0999 V2000
    5.2531    2.6347   16.3811 N   0  0  0  0  0  0  0  0  0  0  0  0
    4.2511    4.2338   17.9547 C   0  0  0  0  0  0  0  0  0  0  0  0
    0.9839    0.8243   16.4653 C   0  0  0  0  0  0  0  0  0  0  0  0
    2.9759    4.3067   17.1099 C   0  0  0  0  0  0  0  0  0  0  0  0
    2.0311    3.3385   17.5893 O   0  0  0  0  0  0  0  0  0  0  0  0
    4.8893    2.8522   17.7994 C   0  0  0  0  0  0  0  0  0  0  0  0
    2.4557    0.9851   16.4521 N   0  0  0  0  0  0  0  0  0  0  0  0
    3.1059   -0.3518   16.4843 C   0  0  0  0  0  0  0  0  0  0  0  0
    3.3290   -0.7843   17.9364 C   0  0  0  0  0  0  0  0  0  0  0  0
    3.5875   -2.2410   17.9824 N   0  0  0  0  0  0  0  0  0  0  0  0
    2.3260   -2.9540   18.3347 C   0  0  0  0  0  0  0  0  0  0  0  0
    4.6446   -2.5236   18.9941 C   0  0  0  0  0  0  0  0  0  0  0  0
    2.5915   -4.4673   18.3872 C   0  0  0  0  0  0  0  0  0  0  0  0
    4.9087   -4.0391   19.0502 C   0  0  0  0  0  0  0  0  0  0  0  0
    3.6479   -4.7507   19.3997 N   0  0  0  0  0  0  0  0  0  0  0  0
   -1.0076    4.6711   15.7944 C   0  0  0  0  0  0  0  0  0  0  0  0
   -6.3167    3.7566   12.2767 N   0  0  0  0  0  0  0  0  0  0  0  0
   -1.5332    3.4883   15.2217 C   0  0  0  0  0  0  0  0  0  0  0  0
   -0.8826    2.2452   15.4427 C   0  0  0  0  0  0  0  0  0  0  0  0
    0.2932    2.1844   16.2400 C   0  0  0  0  0  0  0  0  0  0  0  0
    0.8306    3.3808   16.8031 C   0  0  0  0  0  0  0  0  0  0  0  0
    0.1734    4.6219   16.5810 C   0  0  0  0  0  0  0  0  0  0  0  0
   -7.1949    3.4512   13.3413 C   0  0  0  0  0  0  0  0  0  0  0  0
   -6.4779    3.2196   14.5370 C   0  0  0  0  0  0  0  0  0  0  0  0
   -3.9632    3.3044   15.0197 C   0  0  0  0  0  0  0  0  0  0  0  0
   -2.6920    3.5562   14.4355 C   0  0  0  0  0  0  0  0  0  0  0  0
   -2.5987    3.8838   13.0549 C   0  0  0  0  0  0  0  0  0  0  0  0
   -3.7750    3.9613   12.2612 C   0  0  0  0  0  0  0  0  0  0  0  0
   -5.0536    3.7211   12.8549 C   0  0  0  0  0  0  0  0  0  0  0  0
   -5.1478    3.3964   14.2206 C   0  0  0  0  0  0  0  0  0  0  0  0
  1  6  1  0  0  0  0
  2  4  1  0  0  0  0
  3  7  1  0  0  0  0
  4  5  1  0  0  0  0
  6  2  1  0  0  0  0
  7  8  1  0  0  0  0
  8  9  1  0  0  0  0
  9 10  1  0  0  0  0
 10 11  1  0  0  0  0
 10 12  1  0  0  0  0
 11 13  1  0  0  0  0
 13 15  1  0  0  0  0
 14 12  1  0  0  0  0
 15 14  1  0  0  0  0
 16 18  2  0  0  0  0
 16 22  1  0  0  0  0
 17 23  1  0  0  0  0
 17 29  1  0  0  0  0
 18 19  1  0  0  0  0
 18 26  1  0  0  0  0
 19 20  2  0  0  0  0
 20  3  1  0  0  0  0
 20 21  1  0  0  0  0
 21  5  1  0  0  0  0
 21 22  2  0  0  0  0
 23 24  2  0  0  0  0
 24 30  1  0  0  0  0
 25 26  2  0  0  0  0
 25 30  1  0  0  0  0
 26 27  1  0  0  0  0
 27 28  2  0  0  0  0
 28 29  1  0  0  0  0
 29 30  2  0  0  0  0
M  END
>  <CHROM.1>
175.88909180,62.41268066,-172.33999568,-179.48179309,61.21019339,-89.46816433
163.14206559,-98.13379671,-95.10839896,141.74897748,128.69788992,0.39322157
1.55303334,16.23011438,-0.59765046,-0.37442677,-0.20741215

>  <Name>
1uts_lig

>  <RI>
0

>  <Rbt.Current_Directory>
/home/itssahil/PROJECTS/Mol_Feturizer/New_Systems/rnas/1uts

>  <Rbt.Executable>
rbdock ($Id: //depot/dev/client3/rdock/2013.1/src/exe/rbdock.cxx#4 $)

>  <Rbt.Library>
libRbt.so (2013.1, Build901 2013/11/27)

>  <Rbt.Parameter_File>
/export/apps/rDock/src/rDock_2013.1_src/data/scripts/dock_solv.prm

>  <Rbt.Receptor>
prm/pocket_docking_3.prm

>  <SCORE>
-26.3735

>  <SCORE.INTER>
-23.658

>  <SCORE.INTER.CONST>
1

>  <SCORE.INTER.POLAR>
-0.799282

>  <SCORE.INTER.ROT>
10

>  <SCORE.INTER.SOLV>
10.0991

>  <SCORE.INTER.VDW>
-26.7408

>  <SCORE.INTER.norm>
-0.7886

>  <SCORE.INTRA>
-2.72839

>  <SCORE.INTRA.DIHEDRAL>
-4.11765

>  <SCORE.INTRA.DIHEDRAL.0>
18.0451

>  <SCORE.INTRA.POLAR>
-0.217534

>  <SCORE.INTRA.POLAR.0>
-0.196815

>  <SCORE.INTRA.REPUL>
0

>  <SCORE.INTRA.REPUL.0>
0

>  <SCORE.INTRA.SOLV>
0.678965

>  <SCORE.INTRA.SOLV.lig_0>
-14.7906

>  <SCORE.INTRA.VDW>
-0.269427

>  <SCORE.INTRA.VDW.0>
-0.411701

>  <SCORE.INTRA.norm>
-0.0909462

>  <SCORE.RESTR>
0.0128478

>  <SCORE.RESTR.CAVITY>
0.0128478

>  <SCORE.RESTR.norm>
0.00042826

>  <SCORE.SYSTEM>
0

>  <SCORE.SYSTEM.CONST>
0

>  <SCORE.SYSTEM.DIHEDRAL>
0

>  <SCORE.SYSTEM.SOLV>
0

>  <SCORE.SYSTEM.norm>
0

>  <SCORE.heavy>
30

>  <SCORE.norm>
-0.879118

>  <RMSD>
1.922

$$$$
1uts_lig
 OpenBabel11021811413D
libRbt.so/2013.1/901 2013/11/27
 30 33  0  0  0  0  0  0  0  0999 V2000
    1.6425    4.7074   21.5804 N   0  0  0  0  0  0  0  0  0  0  0  0
    3.0556    6.1068   20.1375 C   0  0  0  0  0  0  0  0  0  0  0  0
    2.6795    3.5882   15.7474 C   0  0  0  0  0  0  0  0  0  0  0  0
    1.9446    5.9929   19.0897 C   0  0  0  0  0  0  0  0  0  0  0  0
    2.0775    4.7478   18.3883 O   0  0  0  0  0  0  0  0  0  0  0  0
    3.0165    4.8867   21.0594 C   0  0  0  0  0  0  0  0  0  0  0  0
    2.8803    2.1566   16.0669 N   0  0  0  0  0  0  0  0  0  0  0  0
    2.7202    1.9426   17.5296 C   0  0  0  0  0  0  0  0  0  0  0  0
    2.7845    0.4450   17.8440 C   0  0  0  0  0  0  0  0  0  0  0  0
    4.1507   -0.0567   17.5744 N   0  0  0  0  0  0  0  0  0  0  0  0
    4.1497   -1.5466   17.6390 C   0  0  0  0  0  0  0  0  0  0  0  0
    5.0921    0.5070   18.5828 C   0  0  0  0  0  0  0  0  0  0  0  0
    5.5681   -2.0712   17.3632 C   0  0  0  0  0  0  0  0  0  0  0  0
    6.5122   -0.0206   18.3099 C   0  0  0  0  0  0  0  0  0  0  0  0
    6.5099   -1.5087   18.3722 N   0  0  0  0  0  0  0  0  0  0  0  0
   -1.3686    4.8517   16.8571 C   0  0  0  0  0  0  0  0  0  0  0  0
   -5.1780    3.8393   11.7093 N   0  0  0  0  0  0  0  0  0  0  0  0
   -1.1178    4.3157   15.5713 C   0  0  0  0  0  0  0  0  0  0  0  0
    0.1964    3.9086   15.2181 C   0  0  0  0  0  0  0  0  0  0  0  0
    1.2603    4.0350   16.1529 C   0  0  0  0  0  0  0  0  0  0  0  0
    1.0084    4.5908   17.4431 C   0  0  0  0  0  0  0  0  0  0  0  0
   -0.3097    4.9937   17.7923 C   0  0  0  0  0  0  0  0  0  0  0  0
   -4.3834    4.1462   10.5814 C   0  0  0  0  0  0  0  0  0  0  0  0
   -3.0519    4.4276   10.9629 C   0  0  0  0  0  0  0  0  0  0  0  0
   -1.9400    4.4258   13.2710 C   0  0  0  0  0  0  0  0  0  0  0  0
   -2.1716    4.1955   14.6544 C   0  0  0  0  0  0  0  0  0  0  0  0
   -3.4716    3.8365   15.1054 C   0  0  0  0  0  0  0  0  0  0  0  0
   -4.5368    3.7060   14.1738 C   0  0  0  0  0  0  0  0  0  0  0  0
   -4.2975    3.9248   12.7810 C   0  0  0  0  0  0  0  0  0  0  0  0
   -3.0122    4.2806   12.3331 C   0  0  0  0  0  0  0  0  0  0  0  0
  1  6  1  0  0  0  0
  2  4  1  0  0  0  0
  3  7  1  0  0  0  0
  4  5  1  0  0  0  0
  6  2  1  0  0  0  0
  7  8  1  0  0  0  0
  8  9  1  0  0  0  0
  9 10  1  0  0  0  0
 10 11  1  0  0  0  0
 10 12  1  0  0  0  0
 11 13  1  0  0  0  0
 13 15  1  0  0  0  0
 14 12  1  0  0  0  0
 15 14  1  0  0  0  0
 16 18  2  0  0  0  0
 16 22  1  0  0  0  0
 17 23  1  0  0  0  0
 17 29  1  0  0  0  0
 18 19  1  0  0  0  0
 18 26  1  0  0  0  0
 19 20  2  0  0  0  0
 20  3  1  0  0  0  0
 20 21  1  0  0  0  0
 21  5  1  0  0  0  0
 21 22  2  0  0  0  0
 23 24  2  0  0  0  0
 24 30  1  0  0  0  0
 25 26  2  0  0  0  0
 25 30  1  0  0  0  0
 26 27  1  0  0  0  0
 27 28  2  0  0  0  0
 28 29  1  0  0  0  0
 29 30  2  0  0  0  0
M  END
>  <CHROM.1>
-172.26905265,-55.31105530,-60.59944358,177.29531485,-51.54477125,174.22433205
67.31502127,-169.73943311,143.42122124,-89.07524859,140.06568648,0.91400847
3.03890980,16.46210609,0.15417714,-0.66727783,0.77516064

>  <Name>
1uts_lig

>  <RI>
0

>  <Rbt.Current_Directory>
/home/itssahil/PROJECTS/Mol_Feturizer/New_Systems/rnas/1uts

>  <Rbt.Executable>
rbdock ($Id: //depot/dev/client3/rdock/2013.1/src/exe/rbdock.cxx#4 $)

>  <Rbt.Library>
libRbt.so (2013.1, Build901 2013/11/27)

>  <Rbt.Parameter_File>
/export/apps/rDock/src/rDock_2013.1_src/data/scripts/dock_solv.prm

>  <Rbt.Receptor>
prm/pocket_docking_2.prm

>  <SCORE>
-22.3579

>  <SCORE.INTER>
-20.1296

>  <SCORE.INTER.CONST>
1

>  <SCORE.INTER.POLAR>
0

>  <SCORE.INTER.ROT>
10

>  <SCORE.INTER.SOLV>
10.2382

>  <SCORE.INTER.VDW>
-27.0991

>  <SCORE.INTER.norm>
-0.670987

>  <SCORE.INTRA>
-2.2351

>  <SCORE.INTRA.DIHEDRAL>
-12.6222

>  <SCORE.INTRA.DIHEDRAL.0>
18.0451

>  <SCORE.INTRA.POLAR>
0.196815

>  <SCORE.INTRA.POLAR.0>
-0.196815

>  <SCORE.INTRA.REPUL>
0

>  <SCORE.INTRA.REPUL.0>
0

>  <SCORE.INTRA.SOLV>
0.191657

>  <SCORE.INTRA.SOLV.lig_0>
-14.7906

>  <SCORE.INTRA.VDW>
3.31101

>  <SCORE.INTRA.VDW.0>
-0.411701

>  <SCORE.INTRA.norm>
-0.0745033

>  <SCORE.RESTR>
0.00683824

>  <SCORE.RESTR.CAVITY>
0.00683824

>  <SCORE.RESTR.norm>
0.000227941

>  <SCORE.SYSTEM>
0

>  <SCORE.SYSTEM.CONST>
0

>  <SCORE.SYSTEM.DIHEDRAL>
0

>  <SCORE.SYSTEM.SOLV>
0

>  <SCORE.SYSTEM.norm>
0

>  <SCORE.heavy>
30

>  <SCORE.norm>
-0.745262

>  <RMSD>
1.957

$$$$
1uts_lig
 OpenBabel11021811413D
libRbt.so/2013.1/901 2013/11/27
 30 33  0  0  0  0  0  0  0  0999 V2000
    4.6092    7.1539   20.0034 N   0  0  0  0  0  0  0  0  0  0  0  0
    2.7260    5.5936   20.2411 C   0  0  0  0  0  0  0  0  0  0  0  0
    2.4043    2.6776   15.8858 C   0  0  0  0  0  0  0  0  0  0  0  0
    1.5599    4.9531   19.4828 C   0  0  0  0  0  0  0  0  0  0  0  0
    2.0411    4.3986   18.2496 O   0  0  0  0  0  0  0  0  0  0  0  0
    3.3347    6.7122   19.3934 C   0  0  0  0  0  0  0  0  0  0  0  0
    2.7325    1.8460   17.0660 N   0  0  0  0  0  0  0  0  0  0  0  0
    3.8082    0.8812   16.7154 C   0  0  0  0  0  0  0  0  0  0  0  0
    3.9359   -0.1749   17.8172 C   0  0  0  0  0  0  0  0  0  0  0  0
    4.6463   -1.3592   17.2844 N   0  0  0  0  0  0  0  0  0  0  0  0
    4.5145   -2.4880   18.2500 C   0  0  0  0  0  0  0  0  0  0  0  0
    6.0821   -1.0205   17.0730 C   0  0  0  0  0  0  0  0  0  0  0  0
    5.2545   -3.7188   17.7017 C   0  0  0  0  0  0  0  0  0  0  0  0
    6.8249   -2.2534   16.5275 C   0  0  0  0  0  0  0  0  0  0  0  0
    6.6908   -3.3811   17.4913 N   0  0  0  0  0  0  0  0  0  0  0  0
   -1.2859    4.9460   16.5576 C   0  0  0  0  0  0  0  0  0  0  0  0
   -5.1697    3.9069   11.4797 N   0  0  0  0  0  0  0  0  0  0  0  0
   -1.1442    4.1444   15.3997 C   0  0  0  0  0  0  0  0  0  0  0  0
    0.0544    3.4123   15.1879 C   0  0  0  0  0  0  0  0  0  0  0  0
    1.1113    3.4794   16.1369 C   0  0  0  0  0  0  0  0  0  0  0  0
    0.9727    4.3012   17.2956 C   0  0  0  0  0  0  0  0  0  0  0  0
   -0.2307    5.0294   17.5039 C   0  0  0  0  0  0  0  0  0  0  0  0
   -4.3502    4.2104   10.3689 C   0  0  0  0  0  0  0  0  0  0  0  0
   -3.0143    4.4339   10.7726 C   0  0  0  0  0  0  0  0  0  0  0  0
   -1.9326    4.3379   13.0931 C   0  0  0  0  0  0  0  0  0  0  0  0
   -2.1899    4.0842   14.4678 C   0  0  0  0  0  0  0  0  0  0  0  0
   -3.5077    3.7628   14.8948 C   0  0  0  0  0  0  0  0  0  0  0  0
   -4.5651    3.6931   13.9478 C   0  0  0  0  0  0  0  0  0  0  0  0
   -4.3003    3.9351   12.5635 C   0  0  0  0  0  0  0  0  0  0  0  0
   -2.9973    4.2539   12.1393 C   0  0  0  0  0  0  0  0  0  0  0  0
  1  6  1  0  0  0  0
  2  4  1  0  0  0  0
  3  7  1  0  0  0  0
  4  5  1  0  0  0  0
  6  2  1  0  0  0  0
  7  8  1  0  0  0  0
  8  9  1  0  0  0  0
  9 10  1  0  0  0  0
 10 11  1  0  0  0  0
 10 12  1  0  0  0  0
 11 13  1  0  0  0  0
 13 15  1  0  0  0  0
 14 12  1  0  0  0  0
 15 14  1  0  0  0  0
 16 18  2  0  0  0  0
 16 22  1  0  0  0  0
 17 23  1  0  0  0  0
 17 29  1  0  0  0  0
 18 19  1  0  0  0  0
 18 26  1  0  0  0  0
 19 20  2  0  0  0  0
 20  3  1  0  0  0  0
 20 21  1  0  0  0  0
 21  5  1  0  0  0  0
 21 22  2  0  0  0  0
 23 24  2  0  0  0  0
 24 30  1  0  0  0  0
 25 26  2  0  0  0  0
 25 30  1  0  0  0  0
 26 27  1  0  0  0  0
 27 28  2  0  0  0  0
 28 29  1  0  0  0  0
 29 30  2  0  0  0  0
M  END
>  <CHROM.1>
168.17426423,60.48884111,168.56460543,-156.11947338,-169.25702259,-167.57187020
160.91735744,-167.95497420,127.78817308,-127.68761068,-163.82786329,1.15081665
2.65513249,16.15874709,-0.16783650,-0.66335562,0.53045343

>  <Name>
1uts_lig

>  <RI>
0

>  <Rbt.Current_Directory>
/home/itssahil/PROJECTS/Mol_Feturizer/New_Systems/rnas/1uts

>  <Rbt.Executable>
rbdock ($Id: //depot/dev/client3/rdock/2013.1/src/exe/rbdock.cxx#4 $)

>  <Rbt.Library>
libRbt.so (2013.1, Build901 2013/11/27)

>  <Rbt.Parameter_File>
/export/apps/rDock/src/rDock_2013.1_src/data/scripts/dock_solv.prm

>  <Rbt.Receptor>
prm/pocket_docking_4.prm

>  <SCORE>
-30.1689

>  <SCORE.INTER>
-28.7209

>  <SCORE.INTER.CONST>
1

>  <SCORE.INTER.POLAR>
-1.39132

>  <SCORE.INTER.ROT>
10

>  <SCORE.INTER.SOLV>
11.001

>  <SCORE.INTER.VDW>
-28.4432

>  <SCORE.INTER.norm>
-0.957363

>  <SCORE.INTRA>
-1.44805

>  <SCORE.INTRA.DIHEDRAL>
-8.43363

>  <SCORE.INTRA.DIHEDRAL.0>
18.0451

>  <SCORE.INTRA.POLAR>
-0.11876

>  <SCORE.INTRA.POLAR.0>
-0.196815

>  <SCORE.INTRA.REPUL>
0

>  <SCORE.INTRA.REPUL.0>
0

>  <SCORE.INTRA.SOLV>
-0.352855

>  <SCORE.INTRA.SOLV.lig_0>
-14.7906

>  <SCORE.INTRA.VDW>
3.34898

>  <SCORE.INTRA.VDW.0>
-0.411701

>  <SCORE.INTRA.norm>
-0.0482683

>  <SCORE.RESTR>
0

>  <SCORE.RESTR.CAVITY>
0

>  <SCORE.RESTR.norm>
0

>  <SCORE.SYSTEM>
0

>  <SCORE.SYSTEM.CONST>
0

>  <SCORE.SYSTEM.DIHEDRAL>
0

>  <SCORE.SYSTEM.SOLV>
0

>  <SCORE.SYSTEM.norm>
0

>  <SCORE.heavy>
30

>  <SCORE.norm>
-1.00563

>  <RMSD>
1.983

$$$$
1uts_lig
 OpenBabel11021811413D
libRbt.so/2013.1/901 2013/11/27
 30 33  0  0  0  0  0  0  0  0999 V2000
    2.3058    4.0408   21.1897 N   0  0  0  0  0  0  0  0  0  0  0  0
    2.9545    6.1150   20.0432 C   0  0  0  0  0  0  0  0  0  0  0  0
    2.4425    3.6562   15.9445 C   0  0  0  0  0  0  0  0  0  0  0  0
    1.9160    6.0047   18.9232 C   0  0  0  0  0  0  0  0  0  0  0  0
    1.6842    4.6204   18.6233 O   0  0  0  0  0  0  0  0  0  0  0  0
    2.3858    5.5124   21.3292 C   0  0  0  0  0  0  0  0  0  0  0  0
    2.7336    2.2610   16.3455 N   0  0  0  0  0  0  0  0  0  0  0  0
    4.0379    2.2061   17.0572 C   0  0  0  0  0  0  0  0  0  0  0  0
    4.6950    0.8416   16.8297 C   0  0  0  0  0  0  0  0  0  0  0  0
    3.9578   -0.1929   17.5895 N   0  0  0  0  0  0  0  0  0  0  0  0
    4.8158   -1.4043   17.7318 C   0  0  0  0  0  0  0  0  0  0  0  0
    2.6971   -0.5302   16.8698 C   0  0  0  0  0  0  0  0  0  0  0  0
    4.0518   -2.4825   18.5173 C   0  0  0  0  0  0  0  0  0  0  0  0
    1.9331   -1.6125   17.6534 C   0  0  0  0  0  0  0  0  0  0  0  0
    2.7915   -2.8211   17.7973 N   0  0  0  0  0  0  0  0  0  0  0  0
   -1.6928    4.7117   16.9443 C   0  0  0  0  0  0  0  0  0  0  0  0
   -5.2331    3.9079   11.5720 N   0  0  0  0  0  0  0  0  0  0  0  0
   -1.3668    4.2693   15.6400 C   0  0  0  0  0  0  0  0  0  0  0  0
   -0.0247    3.9293   15.3225 C   0  0  0  0  0  0  0  0  0  0  0  0
    0.9919    4.0289   16.3116 C   0  0  0  0  0  0  0  0  0  0  0  0
    0.6639    4.4908   17.6217 C   0  0  0  0  0  0  0  0  0  0  0  0
   -0.6818    4.8267   17.9346 C   0  0  0  0  0  0  0  0  0  0  0  0
   -4.3924    4.2794   10.4982 C   0  0  0  0  0  0  0  0  0  0  0  0
   -3.0855    4.5640   10.9548 C   0  0  0  0  0  0  0  0  0  0  0  0
   -2.0826    4.4729   13.3107 C   0  0  0  0  0  0  0  0  0  0  0  0
   -2.3743    4.1751   14.6696 C   0  0  0  0  0  0  0  0  0  0  0  0
   -3.6872    3.7748   15.0415 C   0  0  0  0  0  0  0  0  0  0  0  0
   -4.7052    3.6707   14.0555 C   0  0  0  0  0  0  0  0  0  0  0  0
   -4.4052    3.9576   12.6870 C   0  0  0  0  0  0  0  0  0  0  0  0
   -3.1070    4.3543   12.3172 C   0  0  0  0  0  0  0  0  0  0  0  0
  1  6  1  0  0  0  0
  2  4  1  0  0  0  0
  3  7  1  0  0  0  0
  4  5  1  0  0  0  0
  6  2  1  0  0  0  0
  7  8  1  0  0  0  0
  8  9  1  0  0  0  0
  9 10  1  0  0  0  0
 10 11  1  0  0  0  0
 10 12  1  0  0  0  0
 11 13  1  0  0  0  0
 13 15  1  0  0  0  0
 14 12  1  0  0  0  0
 15 14  1  0  0  0  0
 16 18  2  0  0  0  0
 16 22  1  0  0  0  0
 17 23  1  0  0  0  0
 17 29  1  0  0  0  0
 18 19  1  0  0  0  0
 18 26  1  0  0  0  0
 19 20  2  0  0  0  0
 20  3  1  0  0  0  0
 20 21  1  0  0  0  0
 21  5  1  0  0  0  0
 21 22  2  0  0  0  0
 23 24  2  0  0  0  0
 24 30  1  0  0  0  0
 25 26  2  0  0  0  0
 25 30  1  0  0  0  0
 26 27  1  0  0  0  0
 27 28  2  0  0  0  0
 28 29  1  0  0  0  0
 29 30  2  0  0  0  0
M  END
>  <CHROM.1>
75.05346462,-65.03367859,-133.07876638,177.11211534,71.06968097,-150.31636160
-71.74735903,-161.99864294,144.87451336,-96.48780686,111.07426734,0.48831636
2.89753688,16.37135210,0.00141050,-0.74605660,0.54334122

>  <Name>
1uts_lig

>  <RI>
0

>  <Rbt.Current_Directory>
/home/itssahil/PROJECTS/Mol_Feturizer/New_Systems/rnas/1uts

>  <Rbt.Executable>
rbdock ($Id: //depot/dev/client3/rdock/2013.1/src/exe/rbdock.cxx#4 $)

>  <Rbt.Library>
libRbt.so (2013.1, Build901 2013/11/27)

>  <Rbt.Parameter_File>
/export/apps/rDock/src/rDock_2013.1_src/data/scripts/dock_solv.prm

>  <Rbt.Receptor>
prm/pocket_docking_2.prm

>  <SCORE>
-27.4718

>  <SCORE.INTER>
-24.9743

>  <SCORE.INTER.CONST>
1

>  <SCORE.INTER.POLAR>
-0.792038

>  <SCORE.INTER.ROT>
10

>  <SCORE.INTER.SOLV>
10.1804

>  <SCORE.INTER.VDW>
-27.6695

>  <SCORE.INTER.norm>
-0.832476

>  <SCORE.INTRA>
-2.61569

>  <SCORE.INTRA.DIHEDRAL>
-4.28315

>  <SCORE.INTRA.DIHEDRAL.0>
18.0451

>  <SCORE.INTRA.POLAR>
-0.557531

>  <SCORE.INTRA.POLAR.0>
-0.196815

>  <SCORE.INTRA.REPUL>
0

>  <SCORE.INTRA.REPUL.0>
0

>  <SCORE.INTRA.SOLV>
0.310928

>  <SCORE.INTRA.SOLV.lig_0>
-14.7906

>  <SCORE.INTRA.VDW>
1.26603

>  <SCORE.INTRA.VDW.0>
-0.411701

>  <SCORE.INTRA.norm>
-0.0871896

>  <SCORE.RESTR>
0.118205

>  <SCORE.RESTR.CAVITY>
0.118205

>  <SCORE.RESTR.norm>
0.00394018

>  <SCORE.SYSTEM>
0

>  <SCORE.SYSTEM.CONST>
0

>  <SCORE.SYSTEM.DIHEDRAL>
0

>  <SCORE.SYSTEM.SOLV>
0

>  <SCORE.SYSTEM.norm>
0

>  <SCORE.heavy>
30

>  <SCORE.norm>
-0.915725

>  <RMSD>
1.984

$$$$
1uts_lig
 OpenBabel11021811413D
libRbt.so/2013.1/901 2013/11/27
 30 33  0  0  0  0  0  0  0  0999 V2000
    5.2329    4.5246   21.1561 N   0  0  0  0  0  0  0  0  0  0  0  0
    2.9862    5.3151   20.5521 C   0  0  0  0  0  0  0  0  0  0  0  0
    2.6624    3.7423   15.7548 C   0  0  0  0  0  0  0  0  0  0  0  0
    1.7838    5.0539   19.6405 C   0  0  0  0  0  0  0  0  0  0  0  0
    2.1845    5.2003   18.2701 O   0  0  0  0  0  0  0  0  0  0  0  0
    4.0328    4.2187   20.3452 C   0  0  0  0  0  0  0  0  0  0  0  0
    3.3074    3.0320   16.8824 N   0  0  0  0  0  0  0  0  0  0  0  0
    4.6566    2.5609   16.4716 C   0  0  0  0  0  0  0  0  0  0  0  0
    5.3679    1.9206   17.6673 C   0  0  0  0  0  0  0  0  0  0  0  0
    6.4955    1.0925   17.1840 N   0  0  0  0  0  0  0  0  0  0  0  0
    5.9666   -0.1942   16.6469 C   0  0  0  0  0  0  0  0  0  0  0  0
    7.4392    0.8378   18.3089 C   0  0  0  0  0  0  0  0  0  0  0  0
    7.1355   -1.0588   16.1474 C   0  0  0  0  0  0  0  0  0  0  0  0
    8.6082   -0.0310   17.8108 C   0  0  0  0  0  0  0  0  0  0  0  0
    8.0791   -1.3149   17.2724 N   0  0  0  0  0  0  0  0  0  0  0  0
   -1.3250    5.1686   16.8866 C   0  0  0  0  0  0  0  0  0  0  0  0
   -5.6725    3.6656   12.4424 N   0  0  0  0  0  0  0  0  0  0  0  0
   -1.1343    4.4876   15.6606 C   0  0  0  0  0  0  0  0  0  0  0  0
    0.1605    4.0284   15.2997 C   0  0  0  0  0  0  0  0  0  0  0  0
    1.2653    4.2479   16.1675 C   0  0  0  0  0  0  0  0  0  0  0  0
    1.0738    4.9492   17.3958 C   0  0  0  0  0  0  0  0  0  0  0  0
   -0.2251    5.4038   17.7532 C   0  0  0  0  0  0  0  0  0  0  0  0
   -6.6048    3.5043   13.4925 C   0  0  0  0  0  0  0  0  0  0  0  0
   -5.9690    3.5986   14.7514 C   0  0  0  0  0  0  0  0  0  0  0  0
   -3.5167    4.0283   15.3560 C   0  0  0  0  0  0  0  0  0  0  0  0
   -2.2282    4.2761   14.8095 C   0  0  0  0  0  0  0  0  0  0  0  0
   -2.0521    4.3161   13.3989 C   0  0  0  0  0  0  0  0  0  0  0  0
   -3.1634    4.1108   12.5373 C   0  0  0  0  0  0  0  0  0  0  0  0
   -4.4611    3.8755   13.0902 C   0  0  0  0  0  0  0  0  0  0  0  0
   -4.6371    3.8350   14.4855 C   0  0  0  0  0  0  0  0  0  0  0  0
  1  6  1  0  0  0  0
  2  4  1  0  0  0  0
  3  7  1  0  0  0  0
  4  5  1  0  0  0  0
  6  2  1  0  0  0  0
  7  8  1  0  0  0  0
  8  9  1  0  0  0  0
  9 10  1  0  0  0  0
 10 11  1  0  0  0  0
 10 12  1  0  0  0  0
 11 13  1  0  0  0  0
 13 15  1  0  0  0  0
 14 12  1  0  0  0  0
 15 14  1  0  0  0  0
 16 18  2  0  0  0  0
 16 22  1  0  0  0  0
 17 23  1  0  0  0  0
 17 29  1  0  0  0  0
 18 19  1  0  0  0  0
 18 26  1  0  0  0  0
 19 20  2  0  0  0  0
 20  3  1  0  0  0  0
 20 21  1  0  0  0  0
 21  5  1  0  0  0  0
 21 22  2  0  0  0  0
 23 24  2  0  0  0  0
 24 30  1  0  0  0  0
 25 26  2  0  0  0  0
 25 30  1  0  0  0  0
 26 27  1  0  0  0  0
 27 28  2  0  0  0  0
 28 29  1  0  0  0  0
 29 30  2  0  0  0  0
M  END
>  <CHROM.1>
61.84557557,-66.25547536,-179.55241442,179.54839191,176.05727488,175.69834099
162.45890773,-77.34182292,-34.86714461,-133.12901814,-141.52167205,1.48960868
3.22022305,16.56123131,0.09189750,-0.41877923,0.84409958

>  <Name>
1uts_lig

>  <RI>
0

>  <Rbt.Current_Directory>
/home/itssahil/PROJECTS/Mol_Feturizer/New_Systems/rnas/1uts

>  <Rbt.Executable>
rbdock ($Id: //depot/dev/client3/rdock/2013.1/src/exe/rbdock.cxx#4 $)

>  <Rbt.Library>
libRbt.so (2013.1, Build901 2013/11/27)

>  <Rbt.Parameter_File>
/export/apps/rDock/src/rDock_2013.1_src/data/scripts/dock_solv.prm

>  <Rbt.Receptor>
prm/pocket_docking_5.prm

>  <SCORE>
-24.4856

>  <SCORE.INTER>
-18.4268

>  <SCORE.INTER.CONST>
1

>  <SCORE.INTER.POLAR>
0

>  <SCORE.INTER.ROT>
10

>  <SCORE.INTER.SOLV>
9.64031

>  <SCORE.INTER.VDW>
-25.7646

>  <SCORE.INTER.norm>
-0.614226

>  <SCORE.INTRA>
-6.05884

>  <SCORE.INTRA.DIHEDRAL>
-11.8034

>  <SCORE.INTRA.DIHEDRAL.0>
18.0451

>  <SCORE.INTRA.POLAR>
-0.352961

>  <SCORE.INTRA.POLAR.0>
-0.196815

>  <SCORE.INTRA.REPUL>
0

>  <SCORE.INTRA.REPUL.0>
0

>  <SCORE.INTRA.SOLV>
-0.169096

>  <SCORE.INTRA.SOLV.lig_0>
-14.7906

>  <SCORE.INTRA.VDW>
1.12748

>  <SCORE.INTRA.VDW.0>
-0.411701

>  <SCORE.INTRA.norm>
-0.201961

>  <SCORE.RESTR>
0

>  <SCORE.RESTR.CAVITY>
0

>  <SCORE.RESTR.norm>
0

>  <SCORE.SYSTEM>
0

>  <SCORE.SYSTEM.CONST>
0

>  <SCORE.SYSTEM.DIHEDRAL>
0

>  <SCORE.SYSTEM.SOLV>
0

>  <SCORE.SYSTEM.norm>
0

>  <SCORE.heavy>
30

>  <SCORE.norm>
-0.816187

>  <RMSD>
1.987

$$$$
1uts_lig
 OpenBabel11021811413D
libRbt.so/2013.1/901 2013/11/27
 30 33  0  0  0  0  0  0  0  0999 V2000
    5.0729    5.7234   18.5600 N   0  0  0  0  0  0  0  0  0  0  0  0
    3.3788    4.6503   19.9798 C   0  0  0  0  0  0  0  0  0  0  0  0
    1.0339    1.3068   17.4248 C   0  0  0  0  0  0  0  0  0  0  0  0
    2.2675    4.8176   18.9394 C   0  0  0  0  0  0  0  0  0  0  0  0
    1.3317    3.7367   19.0643 O   0  0  0  0  0  0  0  0  0  0  0  0
    4.3702    5.8091   19.8602 C   0  0  0  0  0  0  0  0  0  0  0  0
    2.1881    1.2126   16.5023 N   0  0  0  0  0  0  0  0  0  0  0  0
    2.6787   -0.1903   16.4555 C   0  0  0  0  0  0  0  0  0  0  0  0
    3.5469   -0.4765   17.6842 C   0  0  0  0  0  0  0  0  0  0  0  0
    3.9310   -1.9059   17.6938 N   0  0  0  0  0  0  0  0  0  0  0  0
    2.8295   -2.7077   18.3002 C   0  0  0  0  0  0  0  0  0  0  0  0
    5.1883   -2.0745   18.4758 C   0  0  0  0  0  0  0  0  0  0  0  0
    3.2265   -4.1927   18.3154 C   0  0  0  0  0  0  0  0  0  0  0  0
    5.5849   -3.5618   18.4949 C   0  0  0  0  0  0  0  0  0  0  0  0
    4.4833   -4.3621   19.0984 N   0  0  0  0  0  0  0  0  0  0  0  0
   -1.2616    4.9508   16.6082 C   0  0  0  0  0  0  0  0  0  0  0  0
   -4.8098    3.9780   11.3006 N   0  0  0  0  0  0  0  0  0  0  0  0
   -1.4208    3.8102   15.7855 C   0  0  0  0  0  0  0  0  0  0  0  0
   -0.6735    2.6328   16.0553 C   0  0  0  0  0  0  0  0  0  0  0  0
    0.2317    2.5951   17.1513 C   0  0  0  0  0  0  0  0  0  0  0  0
    0.4028    3.7518   17.9698 C   0  0  0  0  0  0  0  0  0  0  0  0
   -0.3502    4.9265   17.6967 C   0  0  0  0  0  0  0  0  0  0  0  0
   -3.8055    4.1975   10.3306 C   0  0  0  0  0  0  0  0  0  0  0  0
   -2.5306    4.2856   10.9343 C   0  0  0  0  0  0  0  0  0  0  0  0
   -1.8277    4.0817   13.3896 C   0  0  0  0  0  0  0  0  0  0  0  0
   -2.3141    3.8554   14.7059 C   0  0  0  0  0  0  0  0  0  0  0  0
   -3.7067    3.6680   14.9245 C   0  0  0  0  0  0  0  0  0  0  0  0
   -4.6101    3.7048   13.8281 C   0  0  0  0  0  0  0  0  0  0  0  0
   -4.1161    3.9189   12.5033 C   0  0  0  0  0  0  0  0  0  0  0  0
   -2.7387    4.1050   12.2851 C   0  0  0  0  0  0  0  0  0  0  0  0
  1  6  1  0  0  0  0
  2  4  1  0  0  0  0
  3  7  1  0  0  0  0
  4  5  1  0  0  0  0
  6  2  1  0  0  0  0
  7  8  1  0  0  0  0
  8  9  1  0  0  0  0
  9 10  1  0  0  0  0
 10 11  1  0  0  0  0
 10 12  1  0  0  0  0
 11 13  1  0  0  0  0
 13 15  1  0  0  0  0
 14 12  1  0  0  0  0
 15 14  1  0  0  0  0
 16 18  2  0  0  0  0
 16 22  1  0  0  0  0
 17 23  1  0  0  0  0
 17 29  1  0  0  0  0
 18 19  1  0  0  0  0
 18 26  1  0  0  0  0
 19 20  2  0  0  0  0
 20  3  1  0  0  0  0
 20 21  1  0  0  0  0
 21  5  1  0  0  0  0
 21 22  2  0  0  0  0
 23 24  2  0  0  0  0
 24 30  1  0  0  0  0
 25 26  2  0  0  0  0
 25 30  1  0  0  0  0
 26 27  1  0  0  0  0
 27 28  2  0  0  0  0
 28 29  1  0  0  0  0
 29 30  2  0  0  0  0
M  END
>  <CHROM.1>
-81.09495553,-179.37526339,-161.48858961,-170.84144077,-66.31786755,-79.59772558
174.96013327,-83.42931277,99.53471686,79.21931695,124.89653543,0.76813955
2.11905895,16.45346817,-0.37293652,-0.74091691,0.25243332

>  <Name>
1uts_lig

>  <RI>
0

>  <Rbt.Current_Directory>
/home/itssahil/PROJECTS/Mol_Feturizer/New_Systems/rnas/1uts

>  <Rbt.Executable>
rbdock ($Id: //depot/dev/client3/rdock/2013.1/src/exe/rbdock.cxx#4 $)

>  <Rbt.Library>
libRbt.so (2013.1, Build901 2013/11/27)

>  <Rbt.Parameter_File>
/export/apps/rDock/src/rDock_2013.1_src/data/scripts/dock_solv.prm

>  <Rbt.Receptor>
prm/pocket_docking_3.prm

>  <SCORE>
-25.3795

>  <SCORE.INTER>
-24.3312

>  <SCORE.INTER.CONST>
1

>  <SCORE.INTER.POLAR>
-1.43246

>  <SCORE.INTER.ROT>
10

>  <SCORE.INTER.SOLV>
9.26529

>  <SCORE.INTER.VDW>
-24.801

>  <SCORE.INTER.norm>
-0.811039

>  <SCORE.INTRA>
-1.08157

>  <SCORE.INTRA.DIHEDRAL>
-4.89866

>  <SCORE.INTRA.DIHEDRAL.0>
18.0451

>  <SCORE.INTRA.POLAR>
0.196815

>  <SCORE.INTRA.POLAR.0>
-0.196815

>  <SCORE.INTRA.REPUL>
0

>  <SCORE.INTRA.REPUL.0>
0

>  <SCORE.INTRA.SOLV>
-0.481028

>  <SCORE.INTRA.SOLV.lig_0>
-14.7906

>  <SCORE.INTRA.VDW>
0.939101

>  <SCORE.INTRA.VDW.0>
-0.411701

>  <SCORE.INTRA.norm>
-0.0360524

>  <SCORE.RESTR>
0.0332447

>  <SCORE.RESTR.CAVITY>
0.0332447

>  <SCORE.RESTR.norm>
0.00110816

>  <SCORE.SYSTEM>
0

>  <SCORE.SYSTEM.CONST>
0

>  <SCORE.SYSTEM.DIHEDRAL>
0

>  <SCORE.SYSTEM.SOLV>
0

>  <SCORE.SYSTEM.norm>
0

>  <SCORE.heavy>
30

>  <SCORE.norm>
-0.845984

>  <RMSD>
1.997

$$$$
1uts_lig
 OpenBabel11021811413D
libRbt.so/2013.1/901 2013/11/27
 30 33  0  0  0  0  0  0  0  0999 V2000
    4.3892    6.1316   19.3985 N   0  0  0  0  0  0  0  0  0  0  0  0
    2.7632    4.9994   17.9454 C   0  0  0  0  0  0  0  0  0  0  0  0
    0.7417    0.6574   17.3425 C   0  0  0  0  0  0  0  0  0  0  0  0
    2.7843    3.5053   18.2809 C   0  0  0  0  0  0  0  0  0  0  0  0
    2.8028    2.7443   17.0642 O   0  0  0  0  0  0  0  0  0  0  0  0
    2.9536    5.8140   19.2261 C   0  0  0  0  0  0  0  0  0  0  0  0
    2.1521    0.2107   17.2863 N   0  0  0  0  0  0  0  0  0  0  0  0
    2.4920   -0.5328   18.5283 C   0  0  0  0  0  0  0  0  0  0  0  0
    3.9171   -1.0846   18.4281 C   0  0  0  0  0  0  0  0  0  0  0  0
    3.8709   -2.4840   17.9481 N   0  0  0  0  0  0  0  0  0  0  0  0
    3.0430   -3.2983   18.8837 C   0  0  0  0  0  0  0  0  0  0  0  0
    5.2568   -3.0267   17.8730 C   0  0  0  0  0  0  0  0  0  0  0  0
    2.9959   -4.7535   18.3903 C   0  0  0  0  0  0  0  0  0  0  0  0
    5.2106   -4.4851   17.3827 C   0  0  0  0  0  0  0  0  0  0  0  0
    4.3816   -5.2973   18.3163 N   0  0  0  0  0  0  0  0  0  0  0  0
    0.1298    4.2012   14.8361 C   0  0  0  0  0  0  0  0  0  0  0  0
   -5.7890    3.8591   12.2646 N   0  0  0  0  0  0  0  0  0  0  0  0
   -0.8787    3.2125   14.9289 C   0  0  0  0  0  0  0  0  0  0  0  0
   -0.6738    2.0664   15.7425 C   0  0  0  0  0  0  0  0  0  0  0  0
    0.5400    1.9104   16.4666 C   0  0  0  0  0  0  0  0  0  0  0  0
    1.5622    2.9007   16.3588 C   0  0  0  0  0  0  0  0  0  0  0  0
    1.3502    4.0473   15.5453 C   0  0  0  0  0  0  0  0  0  0  0  0
   -6.6254    3.6167   13.3780 C   0  0  0  0  0  0  0  0  0  0  0  0
   -5.8607    3.3254   14.5304 C   0  0  0  0  0  0  0  0  0  0  0  0
   -3.3232    3.2157   14.8673 C   0  0  0  0  0  0  0  0  0  0  0  0
   -2.0722    3.3724   14.2109 C   0  0  0  0  0  0  0  0  0  0  0  0
   -2.0336    3.6983   12.8272 C   0  0  0  0  0  0  0  0  0  0  0  0
   -3.2441    3.8692   12.1027 C   0  0  0  0  0  0  0  0  0  0  0  0
   -4.5011    3.7246   12.7691 C   0  0  0  0  0  0  0  0  0  0  0  0
   -4.5413    3.4015   14.1378 C   0  0  0  0  0  0  0  0  0  0  0  0
  1  6  1  0  0  0  0
  2  4  1  0  0  0  0
  3  7  1  0  0  0  0
  4  5  1  0  0  0  0
  6  2  1  0  0  0  0
  7  8  1  0  0  0  0
  8  9  1  0  0  0  0
  9 10  1  0  0  0  0
 10 11  1  0  0  0  0
 10 12  1  0  0  0  0
 11 13  1  0  0  0  0
 13 15  1  0  0  0  0
 14 12  1  0  0  0  0
 15 14  1  0  0  0  0
 16 18  2  0  0  0  0
 16 22  1  0  0  0  0
 17 23  1  0  0  0  0
 17 29  1  0  0  0  0
 18 19  1  0  0  0  0
 18 26  1  0  0  0  0
 19 20  2  0  0  0  0
 20  3  1  0  0  0  0
 20 21  1  0  0  0  0
 21  5  1  0  0  0  0
 21 22  2  0  0  0  0
 23 24  2  0  0  0  0
 24 30  1  0  0  0  0
 25 26  2  0  0  0  0
 25 30  1  0  0  0  0
 26 27  1  0  0  0  0
 27 28  2  0  0  0  0
 28 29  1  0  0  0  0
 29 30  2  0  0  0  0
M  END
>  <CHROM.1>
63.09481694,-171.62053688,154.00711327,-67.31599454,93.82343969,175.83861400
-95.31388609,-58.06764178,-130.34912482,143.43078227,-98.43341678,0.64428244
1.56402680,16.35514625,-0.56390644,-0.55550310,0.04921899

>  <Name>
1uts_lig

>  <RI>
0

>  <Rbt.Current_Directory>
/home/itssahil/PROJECTS/Mol_Feturizer/New_Systems/rnas/1uts

>  <Rbt.Executable>
rbdock ($Id: //depot/dev/client3/rdock/2013.1/src/exe/rbdock.cxx#4 $)

>  <Rbt.Library>
libRbt.so (2013.1, Build901 2013/11/27)

>  <Rbt.Parameter_File>
/export/apps/rDock/src/rDock_2013.1_src/data/scripts/dock_solv.prm

>  <Rbt.Receptor>
prm/pocket_docking_4.prm

>  <SCORE>
-30.3698

>  <SCORE.INTER>
-29.7198

>  <SCORE.INTER.CONST>
1

>  <SCORE.INTER.POLAR>
-2.08739

>  <SCORE.INTER.ROT>
10

>  <SCORE.INTER.SOLV>
10.1006

>  <SCORE.INTER.VDW>
-26.4888

>  <SCORE.INTER.norm>
-0.990661

>  <SCORE.INTRA>
-0.665272

>  <SCORE.INTRA.DIHEDRAL>
-1.00578

>  <SCORE.INTRA.DIHEDRAL.0>
18.0451

>  <SCORE.INTRA.POLAR>
-0.690956

>  <SCORE.INTRA.POLAR.0>
-0.196815

>  <SCORE.INTRA.REPUL>
0

>  <SCORE.INTRA.REPUL.0>
0

>  <SCORE.INTRA.SOLV>
-0.0653857

>  <SCORE.INTRA.SOLV.lig_0>
-14.7906

>  <SCORE.INTRA.VDW>
2.21956

>  <SCORE.INTRA.VDW.0>
-0.411701

>  <SCORE.INTRA.norm>
-0.0221757

>  <SCORE.RESTR>
0.0152799

>  <SCORE.RESTR.CAVITY>
0.0152799

>  <SCORE.RESTR.norm>
0.00050933

>  <SCORE.SYSTEM>
0

>  <SCORE.SYSTEM.CONST>
0

>  <SCORE.SYSTEM.DIHEDRAL>
0

>  <SCORE.SYSTEM.SOLV>
0

>  <SCORE.SYSTEM.norm>
0

>  <SCORE.heavy>
30

>  <SCORE.norm>
-1.01233

>  <RMSD>
2.003

$$$$
1uts_lig
 OpenBabel11021811413D
libRbt.so/2013.1/901 2013/11/27
 30 33  0  0  0  0  0  0  0  0999 V2000
    4.3331    6.2919   18.9897 N   0  0  0  0  0  0  0  0  0  0  0  0
    2.8062    5.2141   20.5847 C   0  0  0  0  0  0  0  0  0  0  0  0
    2.7997    3.7981   15.6773 C   0  0  0  0  0  0  0  0  0  0  0  0
    1.6590    4.9875   19.5958 C   0  0  0  0  0  0  0  0  0  0  0  0
    2.1622    5.0757   18.2546 O   0  0  0  0  0  0  0  0  0  0  0  0
    3.5448    6.5044   20.2245 C   0  0  0  0  0  0  0  0  0  0  0  0
    3.1553    2.5583   16.4042 N   0  0  0  0  0  0  0  0  0  0  0  0
    4.5668    2.6355   16.8655 C   0  0  0  0  0  0  0  0  0  0  0  0
    4.8032    1.6144   17.9822 C   0  0  0  0  0  0  0  0  0  0  0  0
    4.8699    0.2549   17.4006 N   0  0  0  0  0  0  0  0  0  0  0  0
    4.5685   -0.7495   18.4609 C   0  0  0  0  0  0  0  0  0  0  0  0
    6.2303    0.0246   16.8376 C   0  0  0  0  0  0  0  0  0  0  0  0
    4.6407   -2.1632   17.8613 C   0  0  0  0  0  0  0  0  0  0  0  0
    6.3049   -1.3922   16.2402 C   0  0  0  0  0  0  0  0  0  0  0  0
    6.0015   -2.3946   17.2991 N   0  0  0  0  0  0  0  0  0  0  0  0
   -1.2713    5.0680   16.6916 C   0  0  0  0  0  0  0  0  0  0  0  0
   -5.0251    3.7783   11.5661 N   0  0  0  0  0  0  0  0  0  0  0  0
   -1.0034    4.4741   15.4352 C   0  0  0  0  0  0  0  0  0  0  0  0
    0.3181    4.0653   15.1127 C   0  0  0  0  0  0  0  0  0  0  0  0
    1.3724    4.2479   16.0492 C   0  0  0  0  0  0  0  0  0  0  0  0
    1.1031    4.8619   17.3092 C   0  0  0  0  0  0  0  0  0  0  0  0
   -0.2223    5.2663   17.6277 C   0  0  0  0  0  0  0  0  0  0  0  0
   -4.2365    4.0916   10.4358 C   0  0  0  0  0  0  0  0  0  0  0  0
   -2.9178    4.4279   10.8173 C   0  0  0  0  0  0  0  0  0  0  0  0
   -1.8178    4.5104   13.1297 C   0  0  0  0  0  0  0  0  0  0  0  0
   -2.0478    4.2987   14.5164 C   0  0  0  0  0  0  0  0  0  0  0  0
   -3.3363    3.9020   14.9688 C   0  0  0  0  0  0  0  0  0  0  0  0
   -4.3916    3.7156   14.0354 C   0  0  0  0  0  0  0  0  0  0  0  0
   -4.1535    3.9159   12.6397 C   0  0  0  0  0  0  0  0  0  0  0  0
   -2.8795    4.3089   12.1903 C   0  0  0  0  0  0  0  0  0  0  0  0
  1  6  1  0  0  0  0
  2  4  1  0  0  0  0
  3  7  1  0  0  0  0
  4  5  1  0  0  0  0
  6  2  1  0  0  0  0
  7  8  1  0  0  0  0
  8  9  1  0  0  0  0
  9 10  1  0  0  0  0
 10 11  1  0  0  0  0
 10 12  1  0  0  0  0
 11 13  1  0  0  0  0
 13 15  1  0  0  0  0
 14 12  1  0  0  0  0
 15 14  1  0  0  0  0
 16 18  2  0  0  0  0
 16 22  1  0  0  0  0
 17 23  1  0  0  0  0
 17 29  1  0  0  0  0
 18 19  1  0  0  0  0
 18 26  1  0  0  0  0
 19 20  2  0  0  0  0
 20  3  1  0  0  0  0
 20 21  1  0  0  0  0
 21  5  1  0  0  0  0
 21 22  2  0  0  0  0
 23 24  2  0  0  0  0
 24 30  1  0  0  0  0
 25 26  2  0  0  0  0
 25 30  1  0  0  0  0
 26 27  1  0  0  0  0
 27 28  2  0  0  0  0
 28 29  1  0  0  0  0
 29 30  2  0  0  0  0
M  END
>  <CHROM.1>
175.53166317,51.61551218,-139.52106825,179.81648867,-72.16985875,161.33005814
74.35437925,-158.18993707,141.24332221,-105.85769847,-148.40277326,1.25279864
3.17373201,16.14770813,0.03079929,-0.62873443,0.62940230

>  <Name>
1uts_lig

>  <RI>
0

>  <Rbt.Current_Directory>
/home/itssahil/PROJECTS/Mol_Feturizer/New_Systems/rnas/1uts

>  <Rbt.Executable>
rbdock ($Id: //depot/dev/client3/rdock/2013.1/src/exe/rbdock.cxx#4 $)

>  <Rbt.Library>
libRbt.so (2013.1, Build901 2013/11/27)

>  <Rbt.Parameter_File>
/export/apps/rDock/src/rDock_2013.1_src/data/scripts/dock_solv.prm

>  <Rbt.Receptor>
prm/pocket_docking_3.prm

>  <SCORE>
-30.0984

>  <SCORE.INTER>
-26.7254

>  <SCORE.INTER.CONST>
1

>  <SCORE.INTER.POLAR>
-0.632456

>  <SCORE.INTER.ROT>
10

>  <SCORE.INTER.SOLV>
11.386

>  <SCORE.INTER.VDW>
-29.7707

>  <SCORE.INTER.norm>
-0.890846

>  <SCORE.INTRA>
-3.37305

>  <SCORE.INTRA.DIHEDRAL>
-8.00928

>  <SCORE.INTRA.DIHEDRAL.0>
18.0451

>  <SCORE.INTRA.POLAR>
-0.455862

>  <SCORE.INTRA.POLAR.0>
-0.196815

>  <SCORE.INTRA.REPUL>
0

>  <SCORE.INTRA.REPUL.0>
0

>  <SCORE.INTRA.SOLV>
0.400325

>  <SCORE.INTRA.SOLV.lig_0>
-14.7906

>  <SCORE.INTRA.VDW>
1.98136

>  <SCORE.INTRA.VDW.0>
-0.411701

>  <SCORE.INTRA.norm>
-0.112435

>  <SCORE.RESTR>
0

>  <SCORE.RESTR.CAVITY>
0

>  <SCORE.RESTR.norm>
0

>  <SCORE.SYSTEM>
0

>  <SCORE.SYSTEM.CONST>
0

>  <SCORE.SYSTEM.DIHEDRAL>
0

>  <SCORE.SYSTEM.SOLV>
0

>  <SCORE.SYSTEM.norm>
0

>  <SCORE.heavy>
30

>  <SCORE.norm>
-1.00328

>  <RMSD>
2.019

$$$$
1uts_lig
 OpenBabel11021811413D
libRbt.so/2013.1/901 2013/11/27
 30 33  0  0  0  0  0  0  0  0999 V2000
    5.4668    6.4643   20.4270 N   0  0  0  0  0  0  0  0  0  0  0  0
    3.4629    5.3328   19.5660 C   0  0  0  0  0  0  0  0  0  0  0  0
    2.5277    3.3552   15.9528 C   0  0  0  0  0  0  0  0  0  0  0  0
    2.3898    5.3824   18.4746 C   0  0  0  0  0  0  0  0  0  0  0  0
    1.5419    4.2300   18.5879 O   0  0  0  0  0  0  0  0  0  0  0  0
    4.3262    6.5936   19.4923 C   0  0  0  0  0  0  0  0  0  0  0  0
    2.7060    1.9040   16.1857 N   0  0  0  0  0  0  0  0  0  0  0  0
    2.5833    1.6111   17.6383 C   0  0  0  0  0  0  0  0  0  0  0  0
    2.7978    0.1148   17.8848 C   0  0  0  0  0  0  0  0  0  0  0  0
    4.2206   -0.2231   17.6562 N   0  0  0  0  0  0  0  0  0  0  0  0
    4.3870   -1.7046   17.6933 C   0  0  0  0  0  0  0  0  0  0  0  0
    5.0566    0.4207   18.7086 C   0  0  0  0  0  0  0  0  0  0  0  0
    5.8645   -2.0592   17.4601 C   0  0  0  0  0  0  0  0  0  0  0  0
    6.5360    0.0632   18.4783 C   0  0  0  0  0  0  0  0  0  0  0  0
    6.7010   -1.4166   18.5131 N   0  0  0  0  0  0  0  0  0  0  0  0
   -1.6515    4.5090   16.5990 C   0  0  0  0  0  0  0  0  0  0  0  0
   -4.6746    4.0447   10.8807 N   0  0  0  0  0  0  0  0  0  0  0  0
   -1.2137    4.1116   15.3130 C   0  0  0  0  0  0  0  0  0  0  0  0
    0.1420    3.7394   15.1104 C   0  0  0  0  0  0  0  0  0  0  0  0
    1.0602    3.7617   16.1959 C   0  0  0  0  0  0  0  0  0  0  0  0
    0.6204    4.1784   17.4883 C   0  0  0  0  0  0  0  0  0  0  0  0
   -0.7386    4.5469   17.6858 C   0  0  0  0  0  0  0  0  0  0  0  0
   -3.7084    4.3635    9.8995 C   0  0  0  0  0  0  0  0  0  0  0  0
   -2.4366    4.5539   10.4860 C   0  0  0  0  0  0  0  0  0  0  0  0
   -1.6801    4.3788   12.9275 C   0  0  0  0  0  0  0  0  0  0  0  0
   -2.1244    4.0935   14.2472 C   0  0  0  0  0  0  0  0  0  0  0  0
   -3.4920    3.7831   14.4833 C   0  0  0  0  0  0  0  0  0  0  0  0
   -4.4123    3.7561   13.4007 C   0  0  0  0  0  0  0  0  0  0  0  0
   -3.9595    4.0299   12.0722 C   0  0  0  0  0  0  0  0  0  0  0  0
   -2.6070    4.3378   11.8368 C   0  0  0  0  0  0  0  0  0  0  0  0
  1  6  1  0  0  0  0
  2  4  1  0  0  0  0
  3  7  1  0  0  0  0
  4  5  1  0  0  0  0
  6  2  1  0  0  0  0
  7  8  1  0  0  0  0
  8  9  1  0  0  0  0
  9 10  1  0  0  0  0
 10 11  1  0  0  0  0
 10 12  1  0  0  0  0
 11 13  1  0  0  0  0
 13 15  1  0  0  0  0
 14 12  1  0  0  0  0
 15 14  1  0  0  0  0
 16 18  2  0  0  0  0
 16 22  1  0  0  0  0
 17 23  1  0  0  0  0
 17 29  1  0  0  0  0
 18 19  1  0  0  0  0
 18 26  1  0  0  0  0
 19 20  2  0  0  0  0
 20  3  1  0  0  0  0
 20 21  1  0  0  0  0
 21  5  1  0  0  0  0
 21 22  2  0  0  0  0
 23 24  2  0  0  0  0
 24 30  1  0  0  0  0
 25 26  2  0  0  0  0
 25 30  1  0  0  0  0
 26 27  1  0  0  0  0
 27 28  2  0  0  0  0
 28 29  1  0  0  0  0
 29 30  2  0  0  0  0
M  END
>  <CHROM.1>
63.39643531,-177.21514997,-70.27389102,-173.69954784,-172.67449865,-178.77288870
70.39714638,-171.49370979,147.76936716,-90.83230086,76.03104895,1.19056413
3.01742914,16.18009223,0.03125994,-0.69606664,0.50136081

>  <Name>
1uts_lig

>  <RI>
0

>  <Rbt.Current_Directory>
/home/itssahil/PROJECTS/Mol_Feturizer/New_Systems/rnas/1uts

>  <Rbt.Executable>
rbdock ($Id: //depot/dev/client3/rdock/2013.1/src/exe/rbdock.cxx#4 $)

>  <Rbt.Library>
libRbt.so (2013.1, Build901 2013/11/27)

>  <Rbt.Parameter_File>
/export/apps/rDock/src/rDock_2013.1_src/data/scripts/dock_solv.prm

>  <Rbt.Receptor>
prm/pocket_docking_3.prm

>  <SCORE>
-23.3051

>  <SCORE.INTER>
-19.3241

>  <SCORE.INTER.CONST>
1

>  <SCORE.INTER.POLAR>
0

>  <SCORE.INTER.ROT>
10

>  <SCORE.INTER.SOLV>
9.56567

>  <SCORE.INTER.VDW>
-26.3379

>  <SCORE.INTER.norm>
-0.644136

>  <SCORE.INTRA>
-3.98099

>  <SCORE.INTRA.DIHEDRAL>
-10.18

>  <SCORE.INTRA.DIHEDRAL.0>
18.0451

>  <SCORE.INTRA.POLAR>
0.196815

>  <SCORE.INTRA.POLAR.0>
-0.196815

>  <SCORE.INTRA.REPUL>
0

>  <SCORE.INTRA.REPUL.0>
0

>  <SCORE.INTRA.SOLV>
-0.261951

>  <SCORE.INTRA.SOLV.lig_0>
-14.7906

>  <SCORE.INTRA.VDW>
0.570806

>  <SCORE.INTRA.VDW.0>
-0.411701

>  <SCORE.INTRA.norm>
-0.1327

>  <SCORE.RESTR>
0

>  <SCORE.RESTR.CAVITY>
0

>  <SCORE.RESTR.norm>
0

>  <SCORE.SYSTEM>
0

>  <SCORE.SYSTEM.CONST>
0

>  <SCORE.SYSTEM.DIHEDRAL>
0

>  <SCORE.SYSTEM.SOLV>
0

>  <SCORE.SYSTEM.norm>
0

>  <SCORE.heavy>
30

>  <SCORE.norm>
-0.776835

>  <RMSD>
2.059

$$$$
1uts_lig
 OpenBabel11021811413D
libRbt.so/2013.1/901 2013/11/27
 30 33  0  0  0  0  0  0  0  0999 V2000
    1.5162    6.5083   21.1330 N   0  0  0  0  0  0  0  0  0  0  0  0
    2.9497    6.0218   19.1976 C   0  0  0  0  0  0  0  0  0  0  0  0
    3.1748    2.0525   16.1610 C   0  0  0  0  0  0  0  0  0  0  0  0
    3.7648    4.9124   18.5268 C   0  0  0  0  0  0  0  0  0  0  0  0
    3.0476    3.6727   18.6186 O   0  0  0  0  0  0  0  0  0  0  0  0
    2.5334    5.5741   20.5999 C   0  0  0  0  0  0  0  0  0  0  0  0
    2.8386    0.6125   16.2342 N   0  0  0  0  0  0  0  0  0  0  0  0
    2.6071    0.2236   17.6506 C   0  0  0  0  0  0  0  0  0  0  0  0
    2.2926   -1.2731   17.7319 C   0  0  0  0  0  0  0  0  0  0  0  0
    3.3033   -1.9435   18.5804 N   0  0  0  0  0  0  0  0  0  0  0  0
    4.6369   -1.8577   17.9185 C   0  0  0  0  0  0  0  0  0  0  0  0
    2.9132   -3.3676   18.7818 C   0  0  0  0  0  0  0  0  0  0  0  0
    5.6887   -2.5564   18.7953 C   0  0  0  0  0  0  0  0  0  0  0  0
    3.9677   -4.0693   19.6565 C   0  0  0  0  0  0  0  0  0  0  0  0
    5.2998   -3.9812   18.9960 N   0  0  0  0  0  0  0  0  0  0  0  0
   -0.3353    4.4816   17.1579 C   0  0  0  0  0  0  0  0  0  0  0  0
   -4.5608    3.8745   12.2827 N   0  0  0  0  0  0  0  0  0  0  0  0
   -0.3066    3.7312   15.9581 C   0  0  0  0  0  0  0  0  0  0  0  0
    0.8341    2.9466   15.6409 C   0  0  0  0  0  0  0  0  0  0  0  0
    1.9462    2.9099   16.5262 C   0  0  0  0  0  0  0  0  0  0  0  0
    1.9219    3.6801   17.7276 C   0  0  0  0  0  0  0  0  0  0  0  0
    0.7760    4.4613   18.0414 C   0  0  0  0  0  0  0  0  0  0  0  0
   -3.7781    4.0198   11.1147 C   0  0  0  0  0  0  0  0  0  0  0  0
   -2.4022    4.0787   11.4327 C   0  0  0  0  0  0  0  0  0  0  0  0
   -1.2025    3.9339   13.6918 C   0  0  0  0  0  0  0  0  0  0  0  0
   -1.4062    3.7735   15.0894 C   0  0  0  0  0  0  0  0  0  0  0  0
   -2.7262    3.6492   15.6037 C   0  0  0  0  0  0  0  0  0  0  0  0
   -3.8395    3.6830   14.7211 C   0  0  0  0  0  0  0  0  0  0  0  0
   -3.6305    3.8305   13.3141 C   0  0  0  0  0  0  0  0  0  0  0  0
   -2.3254    3.9542   12.8036 C   0  0  0  0  0  0  0  0  0  0  0  0
  1  6  1  0  0  0  0
  2  4  1  0  0  0  0
  3  7  1  0  0  0  0
  4  5  1  0  0  0  0
  6  2  1  0  0  0  0
  7  8  1  0  0  0  0
  8  9  1  0  0  0  0
  9 10  1  0  0  0  0
 10 11  1  0  0  0  0
 10 12  1  0  0  0  0
 11 13  1  0  0  0  0
 13 15  1  0  0  0  0
 14 12  1  0  0  0  0
 15 14  1  0  0  0  0
 16 18  2  0  0  0  0
 16 22  1  0  0  0  0
 17 23  1  0  0  0  0
 17 29  1  0  0  0  0
 18 19  1  0  0  0  0
 18 26  1  0  0  0  0
 19 20  2  0  0  0  0
 20  3  1  0  0  0  0
 20 21  1  0  0  0  0
 21  5  1  0  0  0  0
 21 22  2  0  0  0  0
 23 24  2  0  0  0  0
 24 30  1  0  0  0  0
 25 26  2  0  0  0  0
 25 30  1  0  0  0  0
 26 27  1  0  0  0  0
 27 28  2  0  0  0  0
 28 29  1  0  0  0  0
 29 30  2  0  0  0  0
M  END
>  <CHROM.1>
176.16865647,51.09204771,-68.63620454,72.59802565,-168.01368812,-178.63588321
120.14269740,-65.20544585,134.69939257,-69.04169153,106.36175491,1.11451543
2.16984104,16.78253762,-2.77980525,0.79410499,-2.77642230

>  <Name>
1uts_lig

>  <RI>
0

>  <Rbt.Current_Directory>
/home/itssahil/PROJECTS/Mol_Feturizer/New_Systems/rnas/1uts

>  <Rbt.Executable>
rbdock ($Id: //depot/dev/client3/rdock/2013.1/src/exe/rbdock.cxx#4 $)

>  <Rbt.Library>
libRbt.so (2013.1, Build901 2013/11/27)

>  <Rbt.Parameter_File>
/export/apps/rDock/src/rDock_2013.1_src/data/scripts/dock_solv.prm

>  <Rbt.Receptor>
prm/pocket_docking_2.prm

>  <SCORE>
-13.8929

>  <SCORE.INTER>
-15.3761

>  <SCORE.INTER.CONST>
1

>  <SCORE.INTER.POLAR>
0

>  <SCORE.INTER.ROT>
10

>  <SCORE.INTER.SOLV>
8.12548

>  <SCORE.INTER.VDW>
-23.2259

>  <SCORE.INTER.norm>
-0.512538

>  <SCORE.INTRA>
1.01502

>  <SCORE.INTRA.DIHEDRAL>
-3.08251

>  <SCORE.INTRA.DIHEDRAL.0>
18.0451

>  <SCORE.INTRA.POLAR>
0.196815

>  <SCORE.INTRA.POLAR.0>
-0.196815

>  <SCORE.INTRA.REPUL>
0

>  <SCORE.INTRA.REPUL.0>
0

>  <SCORE.INTRA.SOLV>
-0.316166

>  <SCORE.INTRA.SOLV.lig_0>
-14.7906

>  <SCORE.INTRA.VDW>
2.04519

>  <SCORE.INTRA.VDW.0>
-0.411701

>  <SCORE.INTRA.norm>
0.0338341

>  <SCORE.RESTR>
0.468186

>  <SCORE.RESTR.CAVITY>
0.468186

>  <SCORE.RESTR.norm>
0.0156062

>  <SCORE.SYSTEM>
0

>  <SCORE.SYSTEM.CONST>
0

>  <SCORE.SYSTEM.DIHEDRAL>
0

>  <SCORE.SYSTEM.SOLV>
0

>  <SCORE.SYSTEM.norm>
0

>  <SCORE.heavy>
30

>  <SCORE.norm>
-0.463097

>  <RMSD>
2.068

$$$$
1uts_lig
 OpenBabel11021811413D
libRbt.so/2013.1/901 2013/11/27
 30 33  0  0  0  0  0  0  0  0999 V2000
    3.6308    7.0903   19.5411 N   0  0  0  0  0  0  0  0  0  0  0  0
    4.3759    4.8824   18.7619 C   0  0  0  0  0  0  0  0  0  0  0  0
    2.1795    1.9697   16.2242 C   0  0  0  0  0  0  0  0  0  0  0  0
    3.2495    4.8452   17.7251 C   0  0  0  0  0  0  0  0  0  0  0  0
    2.1395    4.1049   18.2541 O   0  0  0  0  0  0  0  0  0  0  0  0
    3.9306    5.7060   19.9717 C   0  0  0  0  0  0  0  0  0  0  0  0
    2.4800    1.4491   17.5772 N   0  0  0  0  0  0  0  0  0  0  0  0
    3.7348    0.6522   17.5400 C   0  0  0  0  0  0  0  0  0  0  0  0
    3.4493   -0.7364   16.9606 C   0  0  0  0  0  0  0  0  0  0  0  0
    2.7693   -1.5656   17.9809 N   0  0  0  0  0  0  0  0  0  0  0  0
    3.7735   -2.4370   18.6563 C   0  0  0  0  0  0  0  0  0  0  0  0
    1.7194   -2.3946   17.3242 C   0  0  0  0  0  0  0  0  0  0  0  0
    3.0702   -3.3026   19.7142 C   0  0  0  0  0  0  0  0  0  0  0  0
    1.0169   -3.2647   18.3820 C   0  0  0  0  0  0  0  0  0  0  0  0
    2.0208   -4.1329   19.0578 N   0  0  0  0  0  0  0  0  0  0  0  0
   -1.0191    4.9630   16.3784 C   0  0  0  0  0  0  0  0  0  0  0  0
   -5.0084    3.8638   11.4051 N   0  0  0  0  0  0  0  0  0  0  0  0
   -1.0272    3.9640   15.3759 C   0  0  0  0  0  0  0  0  0  0  0  0
    0.0126    2.9973   15.3313 C   0  0  0  0  0  0  0  0  0  0  0  0
    1.0600    3.0281   16.2925 C   0  0  0  0  0  0  0  0  0  0  0  0
    1.0750    4.0462   17.2926 C   0  0  0  0  0  0  0  0  0  0  0  0
    0.0299    5.0093   17.3342 C   0  0  0  0  0  0  0  0  0  0  0  0
   -4.1605    4.1083   10.3010 C   0  0  0  0  0  0  0  0  0  0  0  0
   -2.8204    4.2716   10.7196 C   0  0  0  0  0  0  0  0  0  0  0  0
   -1.7750    4.1593   13.0559 C   0  0  0  0  0  0  0  0  0  0  0  0
   -2.0625    3.9409   14.4308 C   0  0  0  0  0  0  0  0  0  0  0  0
   -3.4001    3.6922   14.8445 C   0  0  0  0  0  0  0  0  0  0  0  0
   -4.4472    3.6600   13.8842 C   0  0  0  0  0  0  0  0  0  0  0  0
   -4.1528    3.8663   12.5001 C   0  0  0  0  0  0  0  0  0  0  0  0
   -2.8301    4.1130   12.0890 C   0  0  0  0  0  0  0  0  0  0  0  0
  1  6  1  0  0  0  0
  2  4  1  0  0  0  0
  3  7  1  0  0  0  0
  4  5  1  0  0  0  0
  6  2  1  0  0  0  0
  7  8  1  0  0  0  0
  8  9  1  0  0  0  0
  9 10  1  0  0  0  0
 10 11  1  0  0  0  0
 10 12  1  0  0  0  0
 11 13  1  0  0  0  0
 13 15  1  0  0  0  0
 14 12  1  0  0  0  0
 15 14  1  0  0  0  0
 16 18  2  0  0  0  0
 16 22  1  0  0  0  0
 17 23  1  0  0  0  0
 17 29  1  0  0  0  0
 18 19  1  0  0  0  0
 18 26  1  0  0  0  0
 19 20  2  0  0  0  0
 20  3  1  0  0  0  0
 20 21  1  0  0  0  0
 21  5  1  0  0  0  0
 21 22  2  0  0  0  0
 23 24  2  0  0  0  0
 24 30  1  0  0  0  0
 25 26  2  0  0  0  0
 25 30  1  0  0  0  0
 26 27  1  0  0  0  0
 27 28  2  0  0  0  0
 28 29  1  0  0  0  0
 29 30  2  0  0  0  0
M  END
>  <CHROM.1>
-53.08370599,-66.82778328,-168.29027021,-179.45446163,-60.74804769,-78.37105575
-75.83091428,-97.94522211,115.87704438,-136.11819673,85.87028802,0.57298578
2.34451015,16.30227085,-0.51594959,-0.74292359,-0.02659087

>  <Name>
1uts_lig

>  <RI>
0

>  <Rbt.Current_Directory>
/home/itssahil/PROJECTS/Mol_Feturizer/New_Systems/rnas/1uts

>  <Rbt.Executable>
rbdock ($Id: //depot/dev/client3/rdock/2013.1/src/exe/rbdock.cxx#4 $)

>  <Rbt.Library>
libRbt.so (2013.1, Build901 2013/11/27)

>  <Rbt.Parameter_File>
/export/apps/rDock/src/rDock_2013.1_src/data/scripts/dock_solv.prm

>  <Rbt.Receptor>
prm/pocket_docking_3.prm

>  <SCORE>
-25.0874

>  <SCORE.INTER>
-21.3895

>  <SCORE.INTER.CONST>
1

>  <SCORE.INTER.POLAR>
-0.632456

>  <SCORE.INTER.ROT>
10

>  <SCORE.INTER.SOLV>
9.84663

>  <SCORE.INTER.VDW>
-25.7003

>  <SCORE.INTER.norm>
-0.712982

>  <SCORE.INTRA>
-3.69792

>  <SCORE.INTRA.DIHEDRAL>
-3.80212

>  <SCORE.INTRA.DIHEDRAL.0>
18.0451

>  <SCORE.INTRA.POLAR>
-0.39985

>  <SCORE.INTRA.POLAR.0>
-0.196815

>  <SCORE.INTRA.REPUL>
0

>  <SCORE.INTRA.REPUL.0>
0

>  <SCORE.INTRA.SOLV>
0.21169

>  <SCORE.INTRA.SOLV.lig_0>
-14.7906

>  <SCORE.INTRA.VDW>
-0.543211

>  <SCORE.INTRA.VDW.0>
-0.411701

>  <SCORE.INTRA.norm>
-0.123264

>  <SCORE.RESTR>
0

>  <SCORE.RESTR.CAVITY>
0

>  <SCORE.RESTR.norm>
0

>  <SCORE.SYSTEM>
0

>  <SCORE.SYSTEM.CONST>
0

>  <SCORE.SYSTEM.DIHEDRAL>
0

>  <SCORE.SYSTEM.SOLV>
0

>  <SCORE.SYSTEM.norm>
0

>  <SCORE.heavy>
30

>  <SCORE.norm>
-0.836246

>  <RMSD>
2.092

$$$$
1uts_lig
 OpenBabel11021811413D
libRbt.so/2013.1/901 2013/11/27
 30 33  0  0  0  0  0  0  0  0999 V2000
    5.0839    4.2556   20.1849 N   0  0  0  0  0  0  0  0  0  0  0  0
    3.3761    4.0685   21.9415 C   0  0  0  0  0  0  0  0  0  0  0  0
    2.3276    2.3098   18.3949 C   0  0  0  0  0  0  0  0  0  0  0  0
    2.1861    4.0658   20.9776 C   0  0  0  0  0  0  0  0  0  0  0  0
    2.4978    4.8752   19.8341 O   0  0  0  0  0  0  0  0  0  0  0  0
    4.5758    3.3926   21.2751 C   0  0  0  0  0  0  0  0  0  0  0  0
    3.3516    2.1943   17.3319 N   0  0  0  0  0  0  0  0  0  0  0  0
    4.4516    1.3052   17.7906 C   0  0  0  0  0  0  0  0  0  0  0  0
    4.6720    0.1851   16.7697 C   0  0  0  0  0  0  0  0  0  0  0  0
    4.0475   -1.0624   17.2646 N   0  0  0  0  0  0  0  0  0  0  0  0
    2.5836   -0.8423   17.4446 C   0  0  0  0  0  0  0  0  0  0  0  0
    4.6779   -1.4512   18.5579 C   0  0  0  0  0  0  0  0  0  0  0  0
    1.9321   -2.1349   17.9623 C   0  0  0  0  0  0  0  0  0  0  0  0
    4.0237   -2.7434   19.0792 C   0  0  0  0  0  0  0  0  0  0  0  0
    2.5613   -2.5236   19.2564 N   0  0  0  0  0  0  0  0  0  0  0  0
   -0.3839    5.6420   17.5233 C   0  0  0  0  0  0  0  0  0  0  0  0
   -4.2041    3.8919   12.6110 N   0  0  0  0  0  0  0  0  0  0  0  0
   -0.4870    4.4318   16.7965 C   0  0  0  0  0  0  0  0  0  0  0  0
    0.3951    3.3562   17.0837 C   0  0  0  0  0  0  0  0  0  0  0  0
    1.3794    3.4899   18.1011 C   0  0  0  0  0  0  0  0  0  0  0  0
    1.4924    4.7168   18.8216 C   0  0  0  0  0  0  0  0  0  0  0  0
    0.6047    5.7891   18.5318 C   0  0  0  0  0  0  0  0  0  0  0  0
   -3.2750    3.9257   11.5464 C   0  0  0  0  0  0  0  0  0  0  0  0
   -1.9578    4.0934   12.0306 C   0  0  0  0  0  0  0  0  0  0  0  0
   -1.0724    4.2984   14.4261 C   0  0  0  0  0  0  0  0  0  0  0  0
   -1.4591    4.3079   15.7938 C   0  0  0  0  0  0  0  0  0  0  0  0
   -2.8320    4.1845   16.1432 C   0  0  0  0  0  0  0  0  0  0  0  0
   -3.8154    4.0497   15.1263 C   0  0  0  0  0  0  0  0  0  0  0  0
   -3.4219    4.0265   13.7516 C   0  0  0  0  0  0  0  0  0  0  0  0
   -2.0641    4.1490   13.4040 C   0  0  0  0  0  0  0  0  0  0  0  0
  1  6  1  0  0  0  0
  2  4  1  0  0  0  0
  3  7  1  0  0  0  0
  4  5  1  0  0  0  0
  6  2  1  0  0  0  0
  7  8  1  0  0  0  0
  8  9  1  0  0  0  0
  9 10  1  0  0  0  0
 10 11  1  0  0  0  0
 10 12  1  0  0  0  0
 11 13  1  0  0  0  0
 13 15  1  0  0  0  0
 14 12  1  0  0  0  0
 15 14  1  0  0  0  0
 16 18  2  0  0  0  0
 16 22  1  0  0  0  0
 17 23  1  0  0  0  0
 17 29  1  0  0  0  0
 18 19  1  0  0  0  0
 18 26  1  0  0  0  0
 19 20  2  0  0  0  0
 20  3  1  0  0  0  0
 20 21  1  0  0  0  0
 21  5  1  0  0  0  0
 21 22  2  0  0  0  0
 23 24  2  0  0  0  0
 24 30  1  0  0  0  0
 25 26  2  0  0  0  0
 25 30  1  0  0  0  0
 26 27  1  0  0  0  0
 27 28  2  0  0  0  0
 28 29  1  0  0  0  0
 29 30  2  0  0  0  0
M  END
>  <CHROM.1>
74.36609532,-64.75798633,165.35116343,170.72470306,69.79566559,126.04017932
-101.86172967,60.41438840,108.03991301,74.89841376,-70.05816277,1.19211364
2.58521411,17.29128849,-0.08558018,-0.77028032,0.47073525

>  <Name>
1uts_lig

>  <RI>
0

>  <Rbt.Current_Directory>
/home/itssahil/PROJECTS/Mol_Feturizer/New_Systems/rnas/1uts

>  <Rbt.Executable>
rbdock ($Id: //depot/dev/client3/rdock/2013.1/src/exe/rbdock.cxx#4 $)

>  <Rbt.Library>
libRbt.so (2013.1, Build901 2013/11/27)

>  <Rbt.Parameter_File>
/export/apps/rDock/src/rDock_2013.1_src/data/scripts/dock_solv.prm

>  <Rbt.Receptor>
prm/pocket_docking_2.prm

>  <SCORE>
-13.9768

>  <SCORE.INTER>
-15.0241

>  <SCORE.INTER.CONST>
1

>  <SCORE.INTER.POLAR>
-0.8

>  <SCORE.INTER.ROT>
10

>  <SCORE.INTER.SOLV>
7.1673

>  <SCORE.INTER.VDW>
-20.0052

>  <SCORE.INTER.norm>
-0.500803

>  <SCORE.INTRA>
1.02436

>  <SCORE.INTRA.DIHEDRAL>
0.996171

>  <SCORE.INTRA.DIHEDRAL.0>
18.0451

>  <SCORE.INTRA.POLAR>
-0.55724

>  <SCORE.INTRA.POLAR.0>
-0.196815

>  <SCORE.INTRA.REPUL>
0

>  <SCORE.INTRA.REPUL.0>
0

>  <SCORE.INTRA.SOLV>
0.506991

>  <SCORE.INTRA.SOLV.lig_0>
-14.7906

>  <SCORE.INTRA.VDW>
2.1674

>  <SCORE.INTRA.VDW.0>
-0.411701

>  <SCORE.INTRA.norm>
0.0341453

>  <SCORE.RESTR>
0.0229611

>  <SCORE.RESTR.CAVITY>
0.0229611

>  <SCORE.RESTR.norm>
0.000765369

>  <SCORE.SYSTEM>
0

>  <SCORE.SYSTEM.CONST>
0

>  <SCORE.SYSTEM.DIHEDRAL>
0

>  <SCORE.SYSTEM.SOLV>
0

>  <SCORE.SYSTEM.norm>
0

>  <SCORE.heavy>
30

>  <SCORE.norm>
-0.465892

>  <RMSD>
2.105

$$$$
1uts_lig
 OpenBabel11021811413D
libRbt.so/2013.1/901 2013/11/27
 30 33  0  0  0  0  0  0  0  0999 V2000
    4.8969    6.2857   19.6170 N   0  0  0  0  0  0  0  0  0  0  0  0
    2.9816    4.7586   19.8089 C   0  0  0  0  0  0  0  0  0  0  0  0
    1.4969    4.5502   16.1139 C   0  0  0  0  0  0  0  0  0  0  0  0
    1.6747    4.3351   19.1323 C   0  0  0  0  0  0  0  0  0  0  0  0
    0.8921    5.5012   18.8363 O   0  0  0  0  0  0  0  0  0  0  0  0
    3.7614    5.6891   18.8781 C   0  0  0  0  0  0  0  0  0  0  0  0
    1.6994    3.1996   15.5422 N   0  0  0  0  0  0  0  0  0  0  0  0
    1.5924    2.1790   16.6182 C   0  0  0  0  0  0  0  0  0  0  0  0
    1.4151    0.7897   15.9985 C   0  0  0  0  0  0  0  0  0  0  0  0
    1.6850   -0.2445   17.0224 N   0  0  0  0  0  0  0  0  0  0  0  0
    3.1569   -0.3550   17.2345 C   0  0  0  0  0  0  0  0  0  0  0  0
    1.1258   -1.5486   16.5668 C   0  0  0  0  0  0  0  0  0  0  0  0
    3.4413   -1.4312   18.2948 C   0  0  0  0  0  0  0  0  0  0  0  0
    1.4133   -2.6279   17.6260 C   0  0  0  0  0  0  0  0  0  0  0  0
    2.8834   -2.7360   17.8391 N   0  0  0  0  0  0  0  0  0  0  0  0
   -2.6189    4.9696   17.5628 C   0  0  0  0  0  0  0  0  0  0  0  0
   -6.8561    3.3852   13.0461 N   0  0  0  0  0  0  0  0  0  0  0  0
   -2.3713    4.5263   16.2417 C   0  0  0  0  0  0  0  0  0  0  0  0
   -1.0352    4.3931   15.7784 C   0  0  0  0  0  0  0  0  0  0  0  0
    0.0546    4.7005   16.6385 C   0  0  0  0  0  0  0  0  0  0  0  0
   -0.1976    5.1629   17.9650 C   0  0  0  0  0  0  0  0  0  0  0  0
   -1.5371    5.2914   18.4243 C   0  0  0  0  0  0  0  0  0  0  0  0
   -7.8207    3.4232   14.0785 C   0  0  0  0  0  0  0  0  0  0  0  0
   -7.2140    3.6874   15.3273 C   0  0  0  0  0  0  0  0  0  0  0  0
   -4.7622    4.1142   15.9360 C   0  0  0  0  0  0  0  0  0  0  0  0
   -3.4509    4.2265   15.3990 C   0  0  0  0  0  0  0  0  0  0  0  0
   -3.2374    4.0411   14.0053 C   0  0  0  0  0  0  0  0  0  0  0  0
   -4.3339    3.7463   13.1508 C   0  0  0  0  0  0  0  0  0  0  0  0
   -5.6539    3.6477   13.6919 C   0  0  0  0  0  0  0  0  0  0  0  0
   -5.8670    3.8302   15.0706 C   0  0  0  0  0  0  0  0  0  0  0  0
  1  6  1  0  0  0  0
  2  4  1  0  0  0  0
  3  7  1  0  0  0  0
  4  5  1  0  0  0  0
  6  2  1  0  0  0  0
  7  8  1  0  0  0  0
  8  9  1  0  0  0  0
  9 10  1  0  0  0  0
 10 11  1  0  0  0  0
 10 12  1  0  0  0  0
 11 13  1  0  0  0  0
 13 15  1  0  0  0  0
 14 12  1  0  0  0  0
 15 14  1  0  0  0  0
 16 18  2  0  0  0  0
 16 22  1  0  0  0  0
 17 23  1  0  0  0  0
 17 29  1  0  0  0  0
 18 19  1  0  0  0  0
 18 26  1  0  0  0  0
 19 20  2  0  0  0  0
 20  3  1  0  0  0  0
 20 21  1  0  0  0  0
 21  5  1  0  0  0  0
 21 22  2  0  0  0  0
 23 24  2  0  0  0  0
 24 30  1  0  0  0  0
 25 26  2  0  0  0  0
 25 30  1  0  0  0  0
 26 27  1  0  0  0  0
 27 28  2  0  0  0  0
 28 29  1  0  0  0  0
 29 30  2  0  0  0  0
M  END
>  <CHROM.1>
-174.98071932,-59.38783565,-65.65916836,168.17438429,170.05104452,164.53739636
164.35132498,-76.05321932,-12.24833370,-52.57211328,-64.83337203,-0.55874264
2.98801375,16.64845616,-0.14836105,-0.43963869,0.21650729

>  <Name>
1uts_lig

>  <RI>
0

>  <Rbt.Current_Directory>
/home/itssahil/PROJECTS/Mol_Feturizer/New_Systems/rnas/1uts

>  <Rbt.Executable>
rbdock ($Id: //depot/dev/client3/rdock/2013.1/src/exe/rbdock.cxx#4 $)

>  <Rbt.Library>
libRbt.so (2013.1, Build901 2013/11/27)

>  <Rbt.Parameter_File>
/export/apps/rDock/src/rDock_2013.1_src/data/scripts/dock_solv.prm

>  <Rbt.Receptor>
prm/pocket_docking_3.prm

>  <SCORE>
-33.0035

>  <SCORE.INTER>
-30.6828

>  <SCORE.INTER.CONST>
1

>  <SCORE.INTER.POLAR>
-1.43246

>  <SCORE.INTER.ROT>
10

>  <SCORE.INTER.SOLV>
10.159

>  <SCORE.INTER.VDW>
-29.3334

>  <SCORE.INTER.norm>
-1.02276

>  <SCORE.INTRA>
-2.32066

>  <SCORE.INTRA.DIHEDRAL>
-9.92887

>  <SCORE.INTRA.DIHEDRAL.0>
18.0451

>  <SCORE.INTRA.POLAR>
0.196815

>  <SCORE.INTRA.POLAR.0>
-0.196815

>  <SCORE.INTRA.REPUL>
0

>  <SCORE.INTRA.REPUL.0>
0

>  <SCORE.INTRA.SOLV>
-0.462655

>  <SCORE.INTRA.SOLV.lig_0>
-14.7906

>  <SCORE.INTRA.VDW>
2.20593

>  <SCORE.INTRA.VDW.0>
-0.411701

>  <SCORE.INTRA.norm>
-0.0773553

>  <SCORE.RESTR>
0

>  <SCORE.RESTR.CAVITY>
0

>  <SCORE.RESTR.norm>
0

>  <SCORE.SYSTEM>
0

>  <SCORE.SYSTEM.CONST>
0

>  <SCORE.SYSTEM.DIHEDRAL>
0

>  <SCORE.SYSTEM.SOLV>
0

>  <SCORE.SYSTEM.norm>
0

>  <SCORE.heavy>
30

>  <SCORE.norm>
-1.10012

>  <RMSD>
2.117

$$$$
1uts_lig
 OpenBabel11021811413D
libRbt.so/2013.1/901 2013/11/27
 30 33  0  0  0  0  0  0  0  0999 V2000
    5.0715    5.4669   18.5133 N   0  0  0  0  0  0  0  0  0  0  0  0
    4.2031    4.2101   16.5888 C   0  0  0  0  0  0  0  0  0  0  0  0
    0.6900    0.6370   15.7005 C   0  0  0  0  0  0  0  0  0  0  0  0
    2.9271    4.0734   15.7532 C   0  0  0  0  0  0  0  0  0  0  0  0
    2.0256    3.1669   16.4055 O   0  0  0  0  0  0  0  0  0  0  0  0
    3.8622    4.8291   17.9456 C   0  0  0  0  0  0  0  0  0  0  0  0
    1.1431    0.5472   17.1072 N   0  0  0  0  0  0  0  0  0  0  0  0
    2.0025   -0.6537   17.2810 C   0  0  0  0  0  0  0  0  0  0  0  0
    3.4774   -0.2542   17.1785 C   0  0  0  0  0  0  0  0  0  0  0  0
    4.3248   -1.4606   17.3097 N   0  0  0  0  0  0  0  0  0  0  0  0
    4.3341   -1.9033   18.7337 C   0  0  0  0  0  0  0  0  0  0  0  0
    5.7082   -1.1448   16.8543 C   0  0  0  0  0  0  0  0  0  0  0  0
    5.2165   -3.1542   18.8746 C   0  0  0  0  0  0  0  0  0  0  0  0
    6.5937   -2.3956   16.9984 C   0  0  0  0  0  0  0  0  0  0  0  0
    6.6005   -2.8385   18.4205 N   0  0  0  0  0  0  0  0  0  0  0  0
   -1.1536    4.5331   14.9029 C   0  0  0  0  0  0  0  0  0  0  0  0
   -6.9481    3.6327   12.2408 N   0  0  0  0  0  0  0  0  0  0  0  0
   -1.8206    3.3410   14.5323 C   0  0  0  0  0  0  0  0  0  0  0  0
   -1.2173    2.0818   14.7932 C   0  0  0  0  0  0  0  0  0  0  0  0
    0.0531    2.0147   15.4284 C   0  0  0  0  0  0  0  0  0  0  0  0
    0.7313    3.2185   15.7865 C   0  0  0  0  0  0  0  0  0  0  0  0
    0.1212    4.4760   15.5256 C   0  0  0  0  0  0  0  0  0  0  0  0
   -7.6798    3.3209   13.4092 C   0  0  0  0  0  0  0  0  0  0  0  0
   -6.8128    3.0807   14.4992 C   0  0  0  0  0  0  0  0  0  0  0  0
   -4.2564    3.1603   14.6490 C   0  0  0  0  0  0  0  0  0  0  0  0
   -3.0723    3.4151   13.9051 C   0  0  0  0  0  0  0  0  0  0  0  0
   -3.1600    3.7518   12.5263 C   0  0  0  0  0  0  0  0  0  0  0  0
   -4.4299    3.8356   11.8940 C   0  0  0  0  0  0  0  0  0  0  0  0
   -5.6202    3.5924   12.6484 C   0  0  0  0  0  0  0  0  0  0  0  0
   -5.5353    3.2585   14.0125 C   0  0  0  0  0  0  0  0  0  0  0  0
  1  6  1  0  0  0  0
  2  4  1  0  0  0  0
  3  7  1  0  0  0  0
  4  5  1  0  0  0  0
  6  2  1  0  0  0  0
  7  8  1  0  0  0  0
  8  9  1  0  0  0  0
  9 10  1  0  0  0  0
 10 11  1  0  0  0  0
 10 12  1  0  0  0  0
 11 13  1  0  0  0  0
 13 15  1  0  0  0  0
 14 12  1  0  0  0  0
 15 14  1  0  0  0  0
 16 18  2  0  0  0  0
 16 22  1  0  0  0  0
 17 23  1  0  0  0  0
 17 29  1  0  0  0  0
 18 19  1  0  0  0  0
 18 26  1  0  0  0  0
 19 20  2  0  0  0  0
 20  3  1  0  0  0  0
 20 21  1  0  0  0  0
 21  5  1  0  0  0  0
 21 22  2  0  0  0  0
 23 24  2  0  0  0  0
 24 30  1  0  0  0  0
 25 26  2  0  0  0  0
 25 30  1  0  0  0  0
 26 27  1  0  0  0  0
 27 28  2  0  0  0  0
 28 29  1  0  0  0  0
 29 30  2  0  0  0  0
M  END
>  <CHROM.1>
66.73334142,-63.37681790,-168.09493645,168.88711994,-156.84303760,96.57108845
-178.22797092,-74.00640226,-102.24453349,-130.43735699,132.00502725,0.47621387
1.92845125,15.79221334,-0.37958359,-0.38733262,-0.05873286

>  <Name>
1uts_lig

>  <RI>
0

>  <Rbt.Current_Directory>
/home/itssahil/PROJECTS/Mol_Feturizer/New_Systems/rnas/1uts

>  <Rbt.Executable>
rbdock ($Id: //depot/dev/client3/rdock/2013.1/src/exe/rbdock.cxx#4 $)

>  <Rbt.Library>
libRbt.so (2013.1, Build901 2013/11/27)

>  <Rbt.Parameter_File>
/export/apps/rDock/src/rDock_2013.1_src/data/scripts/dock_solv.prm

>  <Rbt.Receptor>
prm/pocket_docking_3.prm

>  <SCORE>
-31.3495

>  <SCORE.INTER>
-28.0276

>  <SCORE.INTER.CONST>
1

>  <SCORE.INTER.POLAR>
-1.43246

>  <SCORE.INTER.ROT>
10

>  <SCORE.INTER.SOLV>
11.1223

>  <SCORE.INTER.VDW>
-27.8843

>  <SCORE.INTER.norm>
-0.934254

>  <SCORE.INTRA>
-3.32189

>  <SCORE.INTRA.DIHEDRAL>
-4.29745

>  <SCORE.INTRA.DIHEDRAL.0>
18.0451

>  <SCORE.INTRA.POLAR>
-0.483225

>  <SCORE.INTRA.POLAR.0>
-0.196815

>  <SCORE.INTRA.REPUL>
0

>  <SCORE.INTRA.REPUL.0>
0

>  <SCORE.INTRA.SOLV>
-0.296352

>  <SCORE.INTRA.SOLV.lig_0>
-14.7906

>  <SCORE.INTRA.VDW>
0.617978

>  <SCORE.INTRA.VDW.0>
-0.411701

>  <SCORE.INTRA.norm>
-0.11073

>  <SCORE.RESTR>
0

>  <SCORE.RESTR.CAVITY>
0

>  <SCORE.RESTR.norm>
0

>  <SCORE.SYSTEM>
0

>  <SCORE.SYSTEM.CONST>
0

>  <SCORE.SYSTEM.DIHEDRAL>
0

>  <SCORE.SYSTEM.SOLV>
0

>  <SCORE.SYSTEM.norm>
0

>  <SCORE.heavy>
30

>  <SCORE.norm>
-1.04498

>  <RMSD>
2.123

$$$$
1uts_lig
 OpenBabel11021811413D
libRbt.so/2013.1/901 2013/11/27
 30 33  0  0  0  0  0  0  0  0999 V2000
    1.1485    6.2626   18.1186 N   0  0  0  0  0  0  0  0  0  0  0  0
    2.8933    5.1381   19.4333 C   0  0  0  0  0  0  0  0  0  0  0  0
    2.7991    2.1996   16.2859 C   0  0  0  0  0  0  0  0  0  0  0  0
    2.0393    3.9889   19.9765 C   0  0  0  0  0  0  0  0  0  0  0  0
    2.0934    2.8827   19.0637 O   0  0  0  0  0  0  0  0  0  0  0  0
    2.4186    5.5077   18.0268 C   0  0  0  0  0  0  0  0  0  0  0  0
    3.1790    1.0359   17.1186 N   0  0  0  0  0  0  0  0  0  0  0  0
    2.3994   -0.1579   16.6965 C   0  0  0  0  0  0  0  0  0  0  0  0
    2.2380   -1.1160   17.8804 C   0  0  0  0  0  0  0  0  0  0  0  0
    3.4684   -1.9249   18.0308 N   0  0  0  0  0  0  0  0  0  0  0  0
    3.1666   -3.1320   18.8527 C   0  0  0  0  0  0  0  0  0  0  0  0
    4.5243   -1.1012   18.6847 C   0  0  0  0  0  0  0  0  0  0  0  0
    4.4434   -3.9728   19.0144 C   0  0  0  0  0  0  0  0  0  0  0  0
    5.8022   -1.9432   18.8505 C   0  0  0  0  0  0  0  0  0  0  0  0
    5.4995   -3.1499   19.6694 N   0  0  0  0  0  0  0  0  0  0  0  0
   -1.1893    3.6568   17.3738 C   0  0  0  0  0  0  0  0  0  0  0  0
   -4.6469    4.0192   11.8969 N   0  0  0  0  0  0  0  0  0  0  0  0
   -0.8850    3.3566   16.0245 C   0  0  0  0  0  0  0  0  0  0  0  0
    0.4096    2.8853   15.6788 C   0  0  0  0  0  0  0  0  0  0  0  0
    1.3999    2.7110   16.6841 C   0  0  0  0  0  0  0  0  0  0  0  0
    1.0959    3.0297   18.0417 C   0  0  0  0  0  0  0  0  0  0  0  0
   -0.2026    3.4982   18.3823 C   0  0  0  0  0  0  0  0  0  0  0  0
   -3.7242    4.0848   10.8282 C   0  0  0  0  0  0  0  0  0  0  0  0
   -2.3960    3.9831   11.3005 C   0  0  0  0  0  0  0  0  0  0  0  0
   -1.4868    3.6812   13.6767 C   0  0  0  0  0  0  0  0  0  0  0  0
   -1.8661    3.5324   15.0385 C   0  0  0  0  0  0  0  0  0  0  0  0
   -3.2418    3.5551   15.3978 C   0  0  0  0  0  0  0  0  0  0  0  0
   -4.2358    3.7241   14.3963 C   0  0  0  0  0  0  0  0  0  0  0  0
   -3.8518    3.8597   13.0254 C   0  0  0  0  0  0  0  0  0  0  0  0
   -2.4911    3.8380   12.6682 C   0  0  0  0  0  0  0  0  0  0  0  0
  1  6  1  0  0  0  0
  2  4  1  0  0  0  0
  3  7  1  0  0  0  0
  4  5  1  0  0  0  0
  6  2  1  0  0  0  0
  7  8  1  0  0  0  0
  8  9  1  0  0  0  0
  9 10  1  0  0  0  0
 10 11  1  0  0  0  0
 10 12  1  0  0  0  0
 11 13  1  0  0  0  0
 13 15  1  0  0  0  0
 14 12  1  0  0  0  0
 15 14  1  0  0  0  0
 16 18  2  0  0  0  0
 16 22  1  0  0  0  0
 17 23  1  0  0  0  0
 17 29  1  0  0  0  0
 18 19  1  0  0  0  0
 18 26  1  0  0  0  0
 19 20  2  0  0  0  0
 20  3  1  0  0  0  0
 20 21  1  0  0  0  0
 21  5  1  0  0  0  0
 21 22  2  0  0  0  0
 23 24  2  0  0  0  0
 24 30  1  0  0  0  0
 25 26  2  0  0  0  0
 25 30  1  0  0  0  0
 26 27  1  0  0  0  0
 27 28  2  0  0  0  0
 28 29  1  0  0  0  0
 29 30  2  0  0  0  0
M  END
>  <CHROM.1>
-163.45622569,55.94771802,73.31189896,-86.28879812,75.07773541,-152.43977473
-81.02231289,-161.45742620,158.69189172,-127.91495525,138.88206670,0.83774944
2.06241577,16.64906279,-2.84993004,0.78658234,-2.74894266

>  <Name>
1uts_lig

>  <RI>
0

>  <Rbt.Current_Directory>
/home/itssahil/PROJECTS/Mol_Feturizer/New_Systems/rnas/1uts

>  <Rbt.Executable>
rbdock ($Id: //depot/dev/client3/rdock/2013.1/src/exe/rbdock.cxx#4 $)

>  <Rbt.Library>
libRbt.so (2013.1, Build901 2013/11/27)

>  <Rbt.Parameter_File>
/export/apps/rDock/src/rDock_2013.1_src/data/scripts/dock_solv.prm

>  <Rbt.Receptor>
prm/pocket_docking_2.prm

>  <SCORE>
-20.5925

>  <SCORE.INTER>
-20.3566

>  <SCORE.INTER.CONST>
1

>  <SCORE.INTER.POLAR>
-1.69443

>  <SCORE.INTER.ROT>
10

>  <SCORE.INTER.SOLV>
8.15103

>  <SCORE.INTER.VDW>
-20.9067

>  <SCORE.INTER.norm>
-0.678554

>  <SCORE.INTRA>
-1.12194

>  <SCORE.INTRA.DIHEDRAL>
-5.94994

>  <SCORE.INTRA.DIHEDRAL.0>
18.0451

>  <SCORE.INTRA.POLAR>
-0.455324

>  <SCORE.INTRA.POLAR.0>
-0.196815

>  <SCORE.INTRA.REPUL>
0

>  <SCORE.INTRA.REPUL.0>
0

>  <SCORE.INTRA.SOLV>
0.635683

>  <SCORE.INTRA.SOLV.lig_0>
-14.7906

>  <SCORE.INTRA.VDW>
3.08329

>  <SCORE.INTRA.VDW.0>
-0.411701

>  <SCORE.INTRA.norm>
-0.037398

>  <SCORE.RESTR>
0.886032

>  <SCORE.RESTR.CAVITY>
0.886032

>  <SCORE.RESTR.norm>
0.0295344

>  <SCORE.SYSTEM>
0

>  <SCORE.SYSTEM.CONST>
0

>  <SCORE.SYSTEM.DIHEDRAL>
0

>  <SCORE.SYSTEM.SOLV>
0

>  <SCORE.SYSTEM.norm>
0

>  <SCORE.heavy>
30

>  <SCORE.norm>
-0.686418

>  <RMSD>
2.154

$$$$
1uts_lig
 OpenBabel11021811413D
libRbt.so/2013.1/901 2013/11/27
 30 33  0  0  0  0  0  0  0  0999 V2000
    2.3570    5.6296   21.9501 N   0  0  0  0  0  0  0  0  0  0  0  0
    3.2070    6.7493   19.9350 C   0  0  0  0  0  0  0  0  0  0  0  0
    2.7799    4.1378   15.6881 C   0  0  0  0  0  0  0  0  0  0  0  0
    1.9650    6.4224   19.1008 C   0  0  0  0  0  0  0  0  0  0  0  0
    2.1890    5.2085   18.3687 O   0  0  0  0  0  0  0  0  0  0  0  0
    3.4494    5.6317   20.9511 C   0  0  0  0  0  0  0  0  0  0  0  0
    3.4524    3.2241   16.6394 N   0  0  0  0  0  0  0  0  0  0  0  0
    4.9081    3.1728   16.3404 C   0  0  0  0  0  0  0  0  0  0  0  0
    5.5283    1.9360   16.9971 C   0  0  0  0  0  0  0  0  0  0  0  0
    5.2622    1.9655   18.4528 N   0  0  0  0  0  0  0  0  0  0  0  0
    6.0744    3.0475   19.0800 C   0  0  0  0  0  0  0  0  0  0  0  0
    5.6108    0.6434   19.0458 C   0  0  0  0  0  0  0  0  0  0  0  0
    5.8035    3.0787   20.5929 C   0  0  0  0  0  0  0  0  0  0  0  0
    5.3434    0.6746   20.5614 C   0  0  0  0  0  0  0  0  0  0  0  0
    6.1531    1.7571   21.1867 N   0  0  0  0  0  0  0  0  0  0  0  0
   -1.3162    4.9994   16.9899 C   0  0  0  0  0  0  0  0  0  0  0  0
   -5.5494    3.6824   12.3826 N   0  0  0  0  0  0  0  0  0  0  0  0
   -1.0733    4.5025   15.6871 C   0  0  0  0  0  0  0  0  0  0  0  0
    0.2565    4.2259   15.2715 C   0  0  0  0  0  0  0  0  0  0  0  0
    1.3443    4.4435   16.1610 C   0  0  0  0  0  0  0  0  0  0  0  0
    1.0985    4.9600   17.4687 C   0  0  0  0  0  0  0  0  0  0  0  0
   -0.2349    5.2321   17.8803 C   0  0  0  0  0  0  0  0  0  0  0  0
   -6.5002    3.5141   13.4147 C   0  0  0  0  0  0  0  0  0  0  0  0
   -5.8880    3.6046   14.6854 C   0  0  0  0  0  0  0  0  0  0  0  0
   -3.4484    4.0382   15.3368 C   0  0  0  0  0  0  0  0  0  0  0  0
   -2.1507    4.2919   14.8151 C   0  0  0  0  0  0  0  0  0  0  0  0
   -1.9489    4.3384   13.4082 C   0  0  0  0  0  0  0  0  0  0  0  0
   -3.0437    4.1339   12.5255 C   0  0  0  0  0  0  0  0  0  0  0  0
   -4.3506    3.8927   13.0534 C   0  0  0  0  0  0  0  0  0  0  0  0
   -4.5521    3.8457   14.4450 C   0  0  0  0  0  0  0  0  0  0  0  0
  1  6  1  0  0  0  0
  2  4  1  0  0  0  0
  3  7  1  0  0  0  0
  4  5  1  0  0  0  0
  6  2  1  0  0  0  0
  7  8  1  0  0  0  0
  8  9  1  0  0  0  0
  9 10  1  0  0  0  0
 10 11  1  0  0  0  0
 10 12  1  0  0  0  0
 11 13  1  0  0  0  0
 13 15  1  0  0  0  0
 14 12  1  0  0  0  0
 15 14  1  0  0  0  0
 16 18  2  0  0  0  0
 16 22  1  0  0  0  0
 17 23  1  0  0  0  0
 17 29  1  0  0  0  0
 18 19  1  0  0  0  0
 18 26  1  0  0  0  0
 19 20  2  0  0  0  0
 20  3  1  0  0  0  0
 20 21  1  0  0  0  0
 21  5  1  0  0  0  0
 21 22  2  0  0  0  0
 23 24  2  0  0  0  0
 24 30  1  0  0  0  0
 25 26  2  0  0  0  0
 25 30  1  0  0  0  0
 26 27  1  0  0  0  0
 27 28  2  0  0  0  0
 28 29  1  0  0  0  0
 29 30  2  0  0  0  0
M  END
>  <CHROM.1>
-171.72390287,-62.19266789,-167.76463850,-173.67918109,-67.34296628,-162.24580917
-56.72164131,-70.64517087,-25.71410736,-126.35509785,140.54128428,1.08200770
3.87857740,17.09477883,0.37400274,-0.44244960,0.90739859

>  <Name>
1uts_lig

>  <RI>
0

>  <Rbt.Current_Directory>
/home/itssahil/PROJECTS/Mol_Feturizer/New_Systems/rnas/1uts

>  <Rbt.Executable>
rbdock ($Id: //depot/dev/client3/rdock/2013.1/src/exe/rbdock.cxx#4 $)

>  <Rbt.Library>
libRbt.so (2013.1, Build901 2013/11/27)

>  <Rbt.Parameter_File>
/export/apps/rDock/src/rDock_2013.1_src/data/scripts/dock_solv.prm

>  <Rbt.Receptor>
prm/pocket_docking_4.prm

>  <SCORE>
-24.7972

>  <SCORE.INTER>
-19.0007

>  <SCORE.INTER.CONST>
1

>  <SCORE.INTER.POLAR>
0

>  <SCORE.INTER.ROT>
10

>  <SCORE.INTER.SOLV>
9.30539

>  <SCORE.INTER.VDW>
-26.0356

>  <SCORE.INTER.norm>
-0.633357

>  <SCORE.INTRA>
-5.79653

>  <SCORE.INTRA.DIHEDRAL>
-12.4797

>  <SCORE.INTRA.DIHEDRAL.0>
18.0451

>  <SCORE.INTRA.POLAR>
-0.437029

>  <SCORE.INTRA.POLAR.0>
-0.196815

>  <SCORE.INTRA.REPUL>
0

>  <SCORE.INTRA.REPUL.0>
0

>  <SCORE.INTRA.SOLV>
0.217788

>  <SCORE.INTRA.SOLV.lig_0>
-14.7906

>  <SCORE.INTRA.VDW>
1.82032

>  <SCORE.INTRA.VDW.0>
-0.411701

>  <SCORE.INTRA.norm>
-0.193218

>  <SCORE.RESTR>
0

>  <SCORE.RESTR.CAVITY>
0

>  <SCORE.RESTR.norm>
0

>  <SCORE.SYSTEM>
0

>  <SCORE.SYSTEM.CONST>
0

>  <SCORE.SYSTEM.DIHEDRAL>
0

>  <SCORE.SYSTEM.SOLV>
0

>  <SCORE.SYSTEM.norm>
0

>  <SCORE.heavy>
30

>  <SCORE.norm>
-0.826574

>  <RMSD>
2.159

$$$$
1uts_lig
 OpenBabel11021811413D
libRbt.so/2013.1/901 2013/11/27
 30 33  0  0  0  0  0  0  0  0999 V2000
    4.9605    5.7187   18.4773 N   0  0  0  0  0  0  0  0  0  0  0  0
    3.1388    6.4106   19.9739 C   0  0  0  0  0  0  0  0  0  0  0  0
    2.6327    4.1317   16.2743 C   0  0  0  0  0  0  0  0  0  0  0  0
    2.1226    6.2753   18.8362 C   0  0  0  0  0  0  0  0  0  0  0  0
    1.5335    4.9672   18.8771 O   0  0  0  0  0  0  0  0  0  0  0  0
    4.2828    5.4181   19.7586 C   0  0  0  0  0  0  0  0  0  0  0  0
    2.9298    2.6850   16.3785 N   0  0  0  0  0  0  0  0  0  0  0  0
    4.2985    2.4929   16.9270 C   0  0  0  0  0  0  0  0  0  0  0  0
    4.7224    1.0306   16.7612 C   0  0  0  0  0  0  0  0  0  0  0  0
    3.7637    0.1561   17.4733 N   0  0  0  0  0  0  0  0  0  0  0  0
    4.4620   -1.0872   17.9097 C   0  0  0  0  0  0  0  0  0  0  0  0
    2.6293   -0.1758   16.5657 C   0  0  0  0  0  0  0  0  0  0  0  0
    3.4684   -1.9999   18.6465 C   0  0  0  0  0  0  0  0  0  0  0  0
    1.6355   -1.0928   17.3012 C   0  0  0  0  0  0  0  0  0  0  0  0
    2.3341   -2.3332   17.7389 N   0  0  0  0  0  0  0  0  0  0  0  0
   -1.6508    4.8570   16.8573 C   0  0  0  0  0  0  0  0  0  0  0  0
   -4.5477    3.9136   11.1317 N   0  0  0  0  0  0  0  0  0  0  0  0
   -1.1605    4.4741   15.5859 C   0  0  0  0  0  0  0  0  0  0  0  0
    0.2288    4.2411   15.4038 C   0  0  0  0  0  0  0  0  0  0  0  0
    1.1283    4.3882   16.4952 C   0  0  0  0  0  0  0  0  0  0  0  0
    0.6339    4.7902   17.7723 C   0  0  0  0  0  0  0  0  0  0  0  0
   -0.7582    5.0191   17.9495 C   0  0  0  0  0  0  0  0  0  0  0  0
   -3.5890    4.2288   10.1422 C   0  0  0  0  0  0  0  0  0  0  0  0
   -2.3396    4.5340   10.7282 C   0  0  0  0  0  0  0  0  0  0  0  0
   -1.6085    4.5607   13.1836 C   0  0  0  0  0  0  0  0  0  0  0  0
   -2.0532    4.3325   14.5143 C   0  0  0  0  0  0  0  0  0  0  0  0
   -3.4025    3.9538   14.7556 C   0  0  0  0  0  0  0  0  0  0  0  0
   -4.3040    3.8016   13.6676 C   0  0  0  0  0  0  0  0  0  0  0  0
   -3.8500    4.0184   12.3290 C   0  0  0  0  0  0  0  0  0  0  0  0
   -2.5156    4.3936   12.0883 C   0  0  0  0  0  0  0  0  0  0  0  0
  1  6  1  0  0  0  0
  2  4  1  0  0  0  0
  3  7  1  0  0  0  0
  4  5  1  0  0  0  0
  6  2  1  0  0  0  0
  7  8  1  0  0  0  0
  8  9  1  0  0  0  0
  9 10  1  0  0  0  0
 10 11  1  0  0  0  0
 10 12  1  0  0  0  0
 11 13  1  0  0  0  0
 13 15  1  0  0  0  0
 14 12  1  0  0  0  0
 15 14  1  0  0  0  0
 16 18  2  0  0  0  0
 16 22  1  0  0  0  0
 17 23  1  0  0  0  0
 17 29  1  0  0  0  0
 18 19  1  0  0  0  0
 18 26  1  0  0  0  0
 19 20  2  0  0  0  0
 20  3  1  0  0  0  0
 20 21  1  0  0  0  0
 21  5  1  0  0  0  0
 21 22  2  0  0  0  0
 23 24  2  0  0  0  0
 24 30  1  0  0  0  0
 25 26  2  0  0  0  0
 25 30  1  0  0  0  0
 26 27  1  0  0  0  0
 27 28  2  0  0  0  0
 28 29  1  0  0  0  0
 29 30  2  0  0  0  0
M  END
>  <CHROM.1>
48.81669331,63.88660536,-148.10370563,-176.65570632,60.88928258,-168.07781596
-59.16548136,-151.74744647,151.04394230,-83.62545393,83.83024506,0.79535799
3.20115580,16.12198705,-0.09380263,-0.72847493,0.28342342

>  <Name>
1uts_lig

>  <RI>
0

>  <Rbt.Current_Directory>
/home/itssahil/PROJECTS/Mol_Feturizer/New_Systems/rnas/1uts

>  <Rbt.Executable>
rbdock ($Id: //depot/dev/client3/rdock/2013.1/src/exe/rbdock.cxx#4 $)

>  <Rbt.Library>
libRbt.so (2013.1, Build901 2013/11/27)

>  <Rbt.Parameter_File>
/export/apps/rDock/src/rDock_2013.1_src/data/scripts/dock_solv.prm

>  <Rbt.Receptor>
prm/pocket_docking_3.prm

>  <SCORE>
-34.2574

>  <SCORE.INTER>
-31.8431

>  <SCORE.INTER.CONST>
1

>  <SCORE.INTER.POLAR>
-1.43246

>  <SCORE.INTER.ROT>
10

>  <SCORE.INTER.SOLV>
10.1665

>  <SCORE.INTER.VDW>
-30.1094

>  <SCORE.INTER.norm>
-1.06144

>  <SCORE.INTRA>
-2.41431

>  <SCORE.INTRA.DIHEDRAL>
-7.1497

>  <SCORE.INTRA.DIHEDRAL.0>
18.0451

>  <SCORE.INTRA.POLAR>
0.196815

>  <SCORE.INTRA.POLAR.0>
-0.196815

>  <SCORE.INTRA.REPUL>
0

>  <SCORE.INTRA.REPUL.0>
0

>  <SCORE.INTRA.SOLV>
0.37029

>  <SCORE.INTRA.SOLV.lig_0>
-14.7906

>  <SCORE.INTRA.VDW>
0.306218

>  <SCORE.INTRA.VDW.0>
-0.411701

>  <SCORE.INTRA.norm>
-0.0804771

>  <SCORE.RESTR>
0

>  <SCORE.RESTR.CAVITY>
0

>  <SCORE.RESTR.norm>
0

>  <SCORE.SYSTEM>
0

>  <SCORE.SYSTEM.CONST>
0

>  <SCORE.SYSTEM.DIHEDRAL>
0

>  <SCORE.SYSTEM.SOLV>
0

>  <SCORE.SYSTEM.norm>
0

>  <SCORE.heavy>
30

>  <SCORE.norm>
-1.14191

>  <RMSD>
2.175

$$$$
1uts_lig
 OpenBabel11021811413D
libRbt.so/2013.1/901 2013/11/27
 30 33  0  0  0  0  0  0  0  0999 V2000
    4.4040    6.4395   19.0808 N   0  0  0  0  0  0  0  0  0  0  0  0
    2.3196    6.0699   20.3281 C   0  0  0  0  0  0  0  0  0  0  0  0
    1.9669    3.9717   16.6836 C   0  0  0  0  0  0  0  0  0  0  0  0
    1.4417    5.9735   19.0771 C   0  0  0  0  0  0  0  0  0  0  0  0
    0.6141    4.8042   19.1651 O   0  0  0  0  0  0  0  0  0  0  0  0
    3.4764    7.0365   20.0680 C   0  0  0  0  0  0  0  0  0  0  0  0
    2.2209    2.6706   16.0242 N   0  0  0  0  0  0  0  0  0  0  0  0
    1.9385    1.5633   16.9756 C   0  0  0  0  0  0  0  0  0  0  0  0
    1.9234    0.2278   16.2261 C   0  0  0  0  0  0  0  0  0  0  0  0
    2.9198   -0.6863   16.8283 N   0  0  0  0  0  0  0  0  0  0  0  0
    2.5269   -0.9847   18.2356 C   0  0  0  0  0  0  0  0  0  0  0  0
    4.2651   -0.0464   16.7884 C   0  0  0  0  0  0  0  0  0  0  0  0
    3.5617   -1.9310   18.8656 C   0  0  0  0  0  0  0  0  0  0  0  0
    5.3015   -0.9915   17.4225 C   0  0  0  0  0  0  0  0  0  0  0  0
    4.9072   -1.2910   18.8272 N   0  0  0  0  0  0  0  0  0  0  0  0
   -2.3406    4.7728   16.8198 C   0  0  0  0  0  0  0  0  0  0  0  0
   -4.6343    3.9494   10.8103 N   0  0  0  0  0  0  0  0  0  0  0  0
   -1.7257    4.3922   15.6031 C   0  0  0  0  0  0  0  0  0  0  0  0
   -0.3294    4.1345   15.5659 C   0  0  0  0  0  0  0  0  0  0  0  0
    0.4524    4.2546   16.7475 C   0  0  0  0  0  0  0  0  0  0  0  0
   -0.1668    4.6544   17.9698 C   0  0  0  0  0  0  0  0  0  0  0  0
   -1.5655    4.9080   18.0018 C   0  0  0  0  0  0  0  0  0  0  0  0
   -3.5896    4.3267    9.9362 C   0  0  0  0  0  0  0  0  0  0  0  0
   -2.4134    4.6333   10.6574 C   0  0  0  0  0  0  0  0  0  0  0  0
   -1.9329    4.5711   13.1732 C   0  0  0  0  0  0  0  0  0  0  0  0
   -2.5027    4.2773   14.4418 C   0  0  0  0  0  0  0  0  0  0  0  0
   -3.8593    3.8600   14.5301 C   0  0  0  0  0  0  0  0  0  0  0  0
   -4.6431    3.7350   13.3513 C   0  0  0  0  0  0  0  0  0  0  0  0
   -4.0630    4.0180   12.0752 C   0  0  0  0  0  0  0  0  0  0  0  0
   -2.7212    4.4315   11.9860 C   0  0  0  0  0  0  0  0  0  0  0  0
  1  6  1  0  0  0  0
  2  4  1  0  0  0  0
  3  7  1  0  0  0  0
  4  5  1  0  0  0  0
  6  2  1  0  0  0  0
  7  8  1  0  0  0  0
  8  9  1  0  0  0  0
  9 10  1  0  0  0  0
 10 11  1  0  0  0  0
 10 12  1  0  0  0  0
 11 13  1  0  0  0  0
 13 15  1  0  0  0  0
 14 12  1  0  0  0  0
 15 14  1  0  0  0  0
 16 18  2  0  0  0  0
 16 22  1  0  0  0  0
 17 23  1  0  0  0  0
 17 29  1  0  0  0  0
 18 19  1  0  0  0  0
 18 26  1  0  0  0  0
 19 20  2  0  0  0  0
 20  3  1  0  0  0  0
 20 21  1  0  0  0  0
 21  5  1  0  0  0  0
 21 22  2  0  0  0  0
 23 24  2  0  0  0  0
 24 30  1  0  0  0  0
 25 26  2  0  0  0  0
 25 30  1  0  0  0  0
 26 27  1  0  0  0  0
 27 28  2  0  0  0  0
 28 29  1  0  0  0  0
 29 30  2  0  0  0  0
M  END
>  <CHROM.1>
-76.02115381,163.02477490,-77.32441030,-176.93426807,-68.74624185,168.61373305
122.73149195,63.68304599,148.03715280,-50.42069646,71.95165938,0.43485858
3.19905056,16.18849654,0.04537117,-0.75452329,0.52518284

>  <Name>
1uts_lig

>  <RI>
0

>  <Rbt.Current_Directory>
/home/itssahil/PROJECTS/Mol_Feturizer/New_Systems/rnas/1uts

>  <Rbt.Executable>
rbdock ($Id: //depot/dev/client3/rdock/2013.1/src/exe/rbdock.cxx#4 $)

>  <Rbt.Library>
libRbt.so (2013.1, Build901 2013/11/27)

>  <Rbt.Parameter_File>
/export/apps/rDock/src/rDock_2013.1_src/data/scripts/dock_solv.prm

>  <Rbt.Receptor>
prm/pocket_docking_3.prm

>  <SCORE>
-27.4071

>  <SCORE.INTER>
-30.2843

>  <SCORE.INTER.CONST>
1

>  <SCORE.INTER.POLAR>
-1.40804

>  <SCORE.INTER.ROT>
10

>  <SCORE.INTER.SOLV>
11.0689

>  <SCORE.INTER.VDW>
-29.4524

>  <SCORE.INTER.norm>
-1.00948

>  <SCORE.INTRA>
2.87721

>  <SCORE.INTRA.DIHEDRAL>
-3.14978

>  <SCORE.INTRA.DIHEDRAL.0>
18.0451

>  <SCORE.INTRA.POLAR>
0.196815

>  <SCORE.INTRA.POLAR.0>
-0.196815

>  <SCORE.INTRA.REPUL>
0

>  <SCORE.INTRA.REPUL.0>
0

>  <SCORE.INTRA.SOLV>
-0.302483

>  <SCORE.INTRA.SOLV.lig_0>
-14.7906

>  <SCORE.INTRA.VDW>
3.93417

>  <SCORE.INTRA.VDW.0>
-0.411701

>  <SCORE.INTRA.norm>
0.0959069

>  <SCORE.RESTR>
0

>  <SCORE.RESTR.CAVITY>
0

>  <SCORE.RESTR.norm>
0

>  <SCORE.SYSTEM>
0

>  <SCORE.SYSTEM.CONST>
0

>  <SCORE.SYSTEM.DIHEDRAL>
0

>  <SCORE.SYSTEM.SOLV>
0

>  <SCORE.SYSTEM.norm>
0

>  <SCORE.heavy>
30

>  <SCORE.norm>
-0.91357

>  <RMSD>
2.178

$$$$
1uts_lig
 OpenBabel11021811413D
libRbt.so/2013.1/901 2013/11/27
 30 33  0  0  0  0  0  0  0  0999 V2000
    4.6459    6.2151   19.2418 N   0  0  0  0  0  0  0  0  0  0  0  0
    2.4176    5.1894   19.1010 C   0  0  0  0  0  0  0  0  0  0  0  0
    1.3349    0.7249   16.3566 C   0  0  0  0  0  0  0  0  0  0  0  0
    2.9000    4.2754   17.9709 C   0  0  0  0  0  0  0  0  0  0  0  0
    2.0987    3.0850   17.9464 O   0  0  0  0  0  0  0  0  0  0  0  0
    3.2038    6.5013   19.0688 C   0  0  0  0  0  0  0  0  0  0  0  0
    2.7875    0.9030   16.5804 N   0  0  0  0  0  0  0  0  0  0  0  0
    3.4111   -0.4105   16.8916 C   0  0  0  0  0  0  0  0  0  0  0  0
    3.1800   -0.7573   18.3653 C   0  0  0  0  0  0  0  0  0  0  0  0
    3.6192   -2.1479   18.6188 N   0  0  0  0  0  0  0  0  0  0  0  0
    2.5589   -3.0906   18.1594 C   0  0  0  0  0  0  0  0  0  0  0  0
    3.8783   -2.3265   20.0754 C   0  0  0  0  0  0  0  0  0  0  0  0
    3.0099   -4.5361   18.4247 C   0  0  0  0  0  0  0  0  0  0  0  0
    4.3265   -3.7747   20.3428 C   0  0  0  0  0  0  0  0  0  0  0  0
    3.2681   -4.7156   19.8816 N   0  0  0  0  0  0  0  0  0  0  0  0
   -0.6478    4.6015   15.8515 C   0  0  0  0  0  0  0  0  0  0  0  0
   -4.9354    4.1000   11.0514 N   0  0  0  0  0  0  0  0  0  0  0  0
   -1.0324    3.4965   15.0551 C   0  0  0  0  0  0  0  0  0  0  0  0
   -0.3855    2.2433   15.2235 C   0  0  0  0  0  0  0  0  0  0  0  0
    0.6451    2.0942   16.1918 C   0  0  0  0  0  0  0  0  0  0  0  0
    1.0425    3.2140   16.9825 C   0  0  0  0  0  0  0  0  0  0  0  0
    0.3893    4.4653   16.8117 C   0  0  0  0  0  0  0  0  0  0  0  0
   -4.0474    4.3027    9.9706 C   0  0  0  0  0  0  0  0  0  0  0  0
   -2.7041    4.2798   10.4093 C   0  0  0  0  0  0  0  0  0  0  0  0
   -1.7157    3.9109   12.7440 C   0  0  0  0  0  0  0  0  0  0  0  0
   -2.0483    3.6515   14.1014 C   0  0  0  0  0  0  0  0  0  0  0  0
   -3.4123    3.5425   14.4887 C   0  0  0  0  0  0  0  0  0  0  0  0
   -4.4409    3.6907   13.5193 C   0  0  0  0  0  0  0  0  0  0  0  0
   -4.1026    3.9378   12.1520 C   0  0  0  0  0  0  0  0  0  0  0  0
   -2.7538    4.0465   11.7671 C   0  0  0  0  0  0  0  0  0  0  0  0
  1  6  1  0  0  0  0
  2  4  1  0  0  0  0
  3  7  1  0  0  0  0
  4  5  1  0  0  0  0
  6  2  1  0  0  0  0
  7  8  1  0  0  0  0
  8  9  1  0  0  0  0
  9 10  1  0  0  0  0
 10 11  1  0  0  0  0
 10 12  1  0  0  0  0
 11 13  1  0  0  0  0
 13 15  1  0  0  0  0
 14 12  1  0  0  0  0
 15 14  1  0  0  0  0
 16 18  2  0  0  0  0
 16 22  1  0  0  0  0
 17 23  1  0  0  0  0
 17 29  1  0  0  0  0
 18 19  1  0  0  0  0
 18 26  1  0  0  0  0
 19 20  2  0  0  0  0
 20  3  1  0  0  0  0
 20 21  1  0  0  0  0
 21  5  1  0  0  0  0
 21 22  2  0  0  0  0
 23 24  2  0  0  0  0
 24 30  1  0  0  0  0
 25 26  2  0  0  0  0
 25 30  1  0  0  0  0
 26 27  1  0  0  0  0
 27 28  2  0  0  0  0
 28 29  1  0  0  0  0
 29 30  2  0  0  0  0
M  END
>  <CHROM.1>
-73.96172548,-176.05841298,173.55677672,96.15156889,-59.80130290,-80.66552135
171.47383964,-79.91632634,96.44241109,140.53232133,142.28822192,0.71637160
1.93886910,16.25779803,-0.56435172,-0.78427454,0.00121637

>  <Name>
1uts_lig

>  <RI>
0

>  <Rbt.Current_Directory>
/home/itssahil/PROJECTS/Mol_Feturizer/New_Systems/rnas/1uts

>  <Rbt.Executable>
rbdock ($Id: //depot/dev/client3/rdock/2013.1/src/exe/rbdock.cxx#4 $)

>  <Rbt.Library>
libRbt.so (2013.1, Build901 2013/11/27)

>  <Rbt.Parameter_File>
/export/apps/rDock/src/rDock_2013.1_src/data/scripts/dock_solv.prm

>  <Rbt.Receptor>
prm/pocket_docking_3.prm

>  <SCORE>
-22.009

>  <SCORE.INTER>
-21.3441

>  <SCORE.INTER.CONST>
1

>  <SCORE.INTER.POLAR>
-0.478049

>  <SCORE.INTER.ROT>
10

>  <SCORE.INTER.SOLV>
9.85243

>  <SCORE.INTER.VDW>
-26.1867

>  <SCORE.INTER.norm>
-0.711471

>  <SCORE.INTRA>
-0.673077

>  <SCORE.INTRA.DIHEDRAL>
-3.29104

>  <SCORE.INTRA.DIHEDRAL.0>
18.0451

>  <SCORE.INTRA.POLAR>
-0.490425

>  <SCORE.INTRA.POLAR.0>
-0.196815

>  <SCORE.INTRA.REPUL>
0

>  <SCORE.INTRA.REPUL.0>
0

>  <SCORE.INTRA.SOLV>
-0.121669

>  <SCORE.INTRA.SOLV.lig_0>
-14.7906

>  <SCORE.INTRA.VDW>
2.70072

>  <SCORE.INTRA.VDW.0>
-0.411701

>  <SCORE.INTRA.norm>
-0.0224359

>  <SCORE.RESTR>
0.00819242

>  <SCORE.RESTR.CAVITY>
0.00819242

>  <SCORE.RESTR.norm>
0.000273081

>  <SCORE.SYSTEM>
0

>  <SCORE.SYSTEM.CONST>
0

>  <SCORE.SYSTEM.DIHEDRAL>
0

>  <SCORE.SYSTEM.SOLV>
0

>  <SCORE.SYSTEM.norm>
0

>  <SCORE.heavy>
30

>  <SCORE.norm>
-0.733633

>  <RMSD>
2.195

$$$$
1uts_lig
 OpenBabel11021811413D
libRbt.so/2013.1/901 2013/11/27
 30 33  0  0  0  0  0  0  0  0999 V2000
    4.5613    5.4223   17.9482 N   0  0  0  0  0  0  0  0  0  0  0  0
    4.6149    2.9778   18.1908 C   0  0  0  0  0  0  0  0  0  0  0  0
    1.1857    0.0302   16.3675 C   0  0  0  0  0  0  0  0  0  0  0  0
    3.1417    2.7987   17.8128 C   0  0  0  0  0  0  0  0  0  0  0  0
    3.0517    2.3082   16.4670 O   0  0  0  0  0  0  0  0  0  0  0  0
    5.1920    4.1816   17.4438 C   0  0  0  0  0  0  0  0  0  0  0  0
    2.6504   -0.1642   16.2731 N   0  0  0  0  0  0  0  0  0  0  0  0
    3.1899   -0.5587   17.6013 C   0  0  0  0  0  0  0  0  0  0  0  0
    2.7434   -1.9842   17.9390 C   0  0  0  0  0  0  0  0  0  0  0  0
    3.4104   -2.4275   19.1838 N   0  0  0  0  0  0  0  0  0  0  0  0
    3.3165   -3.9119   19.2909 C   0  0  0  0  0  0  0  0  0  0  0  0
    2.7541   -1.7790   20.3540 C   0  0  0  0  0  0  0  0  0  0  0  0
    4.0050   -4.3758   20.5848 C   0  0  0  0  0  0  0  0  0  0  0  0
    3.4403   -2.2456   21.6505 C   0  0  0  0  0  0  0  0  0  0  0  0
    3.3481   -3.7285   21.7557 N   0  0  0  0  0  0  0  0  0  0  0  0
    0.0469    4.0235   14.9633 C   0  0  0  0  0  0  0  0  0  0  0  0
   -6.0858    3.8210   12.9579 N   0  0  0  0  0  0  0  0  0  0  0  0
   -0.8733    2.9512   14.8816 C   0  0  0  0  0  0  0  0  0  0  0  0
   -0.4977    1.6597   15.3380 C   0  0  0  0  0  0  0  0  0  0  0  0
    0.7987    1.4409   15.8796 C   0  0  0  0  0  0  0  0  0  0  0  0
    1.7307    2.5199   15.9460 C   0  0  0  0  0  0  0  0  0  0  0  0
    1.3481    3.8113   15.4905 C   0  0  0  0  0  0  0  0  0  0  0  0
   -6.7726    3.4234   14.1276 C   0  0  0  0  0  0  0  0  0  0  0  0
   -5.8660    3.0066   15.1286 C   0  0  0  0  0  0  0  0  0  0  0  0
   -3.3058    2.9099   15.1280 C   0  0  0  0  0  0  0  0  0  0  0  0
   -2.1492    3.1742   14.3451 C   0  0  0  0  0  0  0  0  0  0  0  0
   -2.2886    3.6714   13.0201 C   0  0  0  0  0  0  0  0  0  0  0  0
   -3.5823    3.9057   12.4807 C   0  0  0  0  0  0  0  0  0  0  0  0
   -4.7436    3.6520   13.2757 C   0  0  0  0  0  0  0  0  0  0  0  0
   -4.6077    3.1595   14.5865 C   0  0  0  0  0  0  0  0  0  0  0  0
  1  6  1  0  0  0  0
  2  4  1  0  0  0  0
  3  7  1  0  0  0  0
  4  5  1  0  0  0  0
  6  2  1  0  0  0  0
  7  8  1  0  0  0  0
  8  9  1  0  0  0  0
  9 10  1  0  0  0  0
 10 11  1  0  0  0  0
 10 12  1  0  0  0  0
 11 13  1  0  0  0  0
 13 15  1  0  0  0  0
 14 12  1  0  0  0  0
 15 14  1  0  0  0  0
 16 18  2  0  0  0  0
 16 22  1  0  0  0  0
 17 23  1  0  0  0  0
 17 29  1  0  0  0  0
 18 19  1  0  0  0  0
 18 26  1  0  0  0  0
 19 20  2  0  0  0  0
 20  3  1  0  0  0  0
 20 21  1  0  0  0  0
 21  5  1  0  0  0  0
 21 22  2  0  0  0  0
 23 24  2  0  0  0  0
 24 30  1  0  0  0  0
 25 26  2  0  0  0  0
 25 30  1  0  0  0  0
 26 27  1  0  0  0  0
 27 28  2  0  0  0  0
 28 29  1  0  0  0  0
 29 30  2  0  0  0  0
M  END
>  <CHROM.1>
-65.95890829,71.89933777,124.43612801,-162.18516482,67.58692360,70.60799380
173.45197381,-162.91925481,-121.30421104,152.87035686,-101.91643896,0.63958659
1.37852143,16.66874362,-0.71866575,-0.34497184,-0.46464639

>  <Name>
1uts_lig

>  <RI>
0

>  <Rbt.Current_Directory>
/home/itssahil/PROJECTS/Mol_Feturizer/New_Systems/rnas/1uts

>  <Rbt.Executable>
rbdock ($Id: //depot/dev/client3/rdock/2013.1/src/exe/rbdock.cxx#4 $)

>  <Rbt.Library>
libRbt.so (2013.1, Build901 2013/11/27)

>  <Rbt.Parameter_File>
/export/apps/rDock/src/rDock_2013.1_src/data/scripts/dock_solv.prm

>  <Rbt.Receptor>
prm/pocket_docking_5.prm

>  <SCORE>
-27.7581

>  <SCORE.INTER>
-26.4866

>  <SCORE.INTER.CONST>
1

>  <SCORE.INTER.POLAR>
-1.55406

>  <SCORE.INTER.ROT>
10

>  <SCORE.INTER.SOLV>
9.8704

>  <SCORE.INTER.VDW>
-26.0343

>  <SCORE.INTER.norm>
-0.882887

>  <SCORE.INTRA>
-1.27149

>  <SCORE.INTRA.DIHEDRAL>
-2.34221

>  <SCORE.INTRA.DIHEDRAL.0>
18.0451

>  <SCORE.INTRA.POLAR>
-0.512664

>  <SCORE.INTRA.POLAR.0>
-0.196815

>  <SCORE.INTRA.REPUL>
0

>  <SCORE.INTRA.REPUL.0>
0

>  <SCORE.INTRA.SOLV>
0.0822885

>  <SCORE.INTRA.SOLV.lig_0>
-14.7906

>  <SCORE.INTRA.VDW>
1.60153

>  <SCORE.INTRA.VDW.0>
-0.411701

>  <SCORE.INTRA.norm>
-0.042383

>  <SCORE.RESTR>
0

>  <SCORE.RESTR.CAVITY>
0

>  <SCORE.RESTR.norm>
0

>  <SCORE.SYSTEM>
0

>  <SCORE.SYSTEM.CONST>
0

>  <SCORE.SYSTEM.DIHEDRAL>
0

>  <SCORE.SYSTEM.SOLV>
0

>  <SCORE.SYSTEM.norm>
0

>  <SCORE.heavy>
30

>  <SCORE.norm>
-0.92527

>  <RMSD>
2.201

$$$$
1uts_lig
 OpenBabel11021811413D
libRbt.so/2013.1/901 2013/11/27
 30 33  0  0  0  0  0  0  0  0999 V2000
    4.5029    3.0165   21.1018 N   0  0  0  0  0  0  0  0  0  0  0  0
    4.6194    3.5143   18.6985 C   0  0  0  0  0  0  0  0  0  0  0  0
    1.5759    0.3105   16.5934 C   0  0  0  0  0  0  0  0  0  0  0  0
    3.7216    3.8591   17.5067 C   0  0  0  0  0  0  0  0  0  0  0  0
    3.3496    2.6517   16.8258 O   0  0  0  0  0  0  0  0  0  0  0  0
    3.7721    2.9086   19.8189 C   0  0  0  0  0  0  0  0  0  0  0  0
    2.9853    0.0024   16.2606 N   0  0  0  0  0  0  0  0  0  0  0  0
    3.7506   -0.2529   17.5097 C   0  0  0  0  0  0  0  0  0  0  0  0
    3.2340   -1.5283   18.1820 C   0  0  0  0  0  0  0  0  0  0  0  0
    4.3432   -2.1860   18.9086 N   0  0  0  0  0  0  0  0  0  0  0  0
    4.0260   -3.6322   19.0868 C   0  0  0  0  0  0  0  0  0  0  0  0
    4.5262   -1.5267   20.2326 C   0  0  0  0  0  0  0  0  0  0  0  0
    5.1743   -4.3179   19.8448 C   0  0  0  0  0  0  0  0  0  0  0  0
    5.6734   -2.2150   20.9940 C   0  0  0  0  0  0  0  0  0  0  0  0
    5.3569   -3.6598   21.1695 N   0  0  0  0  0  0  0  0  0  0  0  0
    0.4372    4.2461   15.0349 C   0  0  0  0  0  0  0  0  0  0  0  0
   -5.2463    3.8343   12.0564 N   0  0  0  0  0  0  0  0  0  0  0  0
   -0.4363    3.1423   14.8870 C   0  0  0  0  0  0  0  0  0  0  0  0
   -0.0609    1.8696   15.3940 C   0  0  0  0  0  0  0  0  0  0  0  0
    1.1882    1.7015   16.0523 C   0  0  0  0  0  0  0  0  0  0  0  0
    2.0745    2.8122   16.1859 C   0  0  0  0  0  0  0  0  0  0  0  0
    1.6921    4.0845   15.6792 C   0  0  0  0  0  0  0  0  0  0  0  0
   -4.6692    4.1255   10.7995 C   0  0  0  0  0  0  0  0  0  0  0  0
   -3.2581    4.1234   10.8787 C   0  0  0  0  0  0  0  0  0  0  0  0
   -1.6971    3.6600   12.8568 C   0  0  0  0  0  0  0  0  0  0  0  0
   -1.6655    3.3154   14.2355 C   0  0  0  0  0  0  0  0  0  0  0  0
   -2.8823    3.1399   14.9503 C   0  0  0  0  0  0  0  0  0  0  0  0
   -4.1277    3.3067   14.2864 C   0  0  0  0  0  0  0  0  0  0  0  0
   -4.1561    3.6397   12.8960 C   0  0  0  0  0  0  0  0  0  0  0  0
   -2.9534    3.8143   12.1873 C   0  0  0  0  0  0  0  0  0  0  0  0
  1  6  1  0  0  0  0
  2  4  1  0  0  0  0
  3  7  1  0  0  0  0
  4  5  1  0  0  0  0
  6  2  1  0  0  0  0
  7  8  1  0  0  0  0
  8  9  1  0  0  0  0
  9 10  1  0  0  0  0
 10 11  1  0  0  0  0
 10 12  1  0  0  0  0
 11 13  1  0  0  0  0
 13 15  1  0  0  0  0
 14 12  1  0  0  0  0
 15 14  1  0  0  0  0
 16 18  2  0  0  0  0
 16 22  1  0  0  0  0
 17 23  1  0  0  0  0
 17 29  1  0  0  0  0
 18 19  1  0  0  0  0
 18 26  1  0  0  0  0
 19 20  2  0  0  0  0
 20  3  1  0  0  0  0
 20 21  1  0  0  0  0
 21  5  1  0  0  0  0
 21 22  2  0  0  0  0
 23 24  2  0  0  0  0
 24 30  1  0  0  0  0
 25 26  2  0  0  0  0
 25 30  1  0  0  0  0
 26 27  1  0  0  0  0
 27 28  2  0  0  0  0
 28 29  1  0  0  0  0
 29 30  2  0  0  0  0
M  END
>  <CHROM.1>
-174.24674967,-74.32583893,121.54408393,151.51038112,-160.19166395,66.00588879
149.14469714,-157.42948794,64.79434409,135.82822055,-147.77877806,1.34162660
1.48719032,16.53625959,-0.50882093,-0.69520525,-0.07617913

>  <Name>
1uts_lig

>  <RI>
0

>  <Rbt.Current_Directory>
/home/itssahil/PROJECTS/Mol_Feturizer/New_Systems/rnas/1uts

>  <Rbt.Executable>
rbdock ($Id: //depot/dev/client3/rdock/2013.1/src/exe/rbdock.cxx#4 $)

>  <Rbt.Library>
libRbt.so (2013.1, Build901 2013/11/27)

>  <Rbt.Parameter_File>
/export/apps/rDock/src/rDock_2013.1_src/data/scripts/dock_solv.prm

>  <Rbt.Receptor>
prm/pocket_docking_2.prm

>  <SCORE>
-16.4148

>  <SCORE.INTER>
-20.0496

>  <SCORE.INTER.CONST>
1

>  <SCORE.INTER.POLAR>
-0.721489

>  <SCORE.INTER.ROT>
10

>  <SCORE.INTER.SOLV>
10.0297

>  <SCORE.INTER.VDW>
-24.5714

>  <SCORE.INTER.norm>
-0.668321

>  <SCORE.INTRA>
2.48096

>  <SCORE.INTRA.DIHEDRAL>
1.09133

>  <SCORE.INTRA.DIHEDRAL.0>
18.0451

>  <SCORE.INTRA.POLAR>
-0.0948869

>  <SCORE.INTRA.POLAR.0>
-0.196815

>  <SCORE.INTRA.REPUL>
0

>  <SCORE.INTRA.REPUL.0>
0

>  <SCORE.INTRA.SOLV>
-0.242789

>  <SCORE.INTRA.SOLV.lig_0>
-14.7906

>  <SCORE.INTRA.VDW>
2.37931

>  <SCORE.INTRA.VDW.0>
-0.411701

>  <SCORE.INTRA.norm>
0.0826987

>  <SCORE.RESTR>
1.15386

>  <SCORE.RESTR.CAVITY>
1.15386

>  <SCORE.RESTR.norm>
0.038462

>  <SCORE.SYSTEM>
0

>  <SCORE.SYSTEM.CONST>
0

>  <SCORE.SYSTEM.DIHEDRAL>
0

>  <SCORE.SYSTEM.SOLV>
0

>  <SCORE.SYSTEM.norm>
0

>  <SCORE.heavy>
30

>  <SCORE.norm>
-0.547161

>  <RMSD>
2.212

$$$$
1uts_lig
 OpenBabel11021811413D
libRbt.so/2013.1/901 2013/11/27
 30 33  0  0  0  0  0  0  0  0999 V2000
    5.3291    5.6476   16.7111 N   0  0  0  0  0  0  0  0  0  0  0  0
    4.9627    3.2191   16.7848 C   0  0  0  0  0  0  0  0  0  0  0  0
    1.3109    0.5257   15.9483 C   0  0  0  0  0  0  0  0  0  0  0  0
    3.6144    3.2356   16.0588 C   0  0  0  0  0  0  0  0  0  0  0  0
    2.5632    2.9762   17.0008 O   0  0  0  0  0  0  0  0  0  0  0  0
    5.1124    4.4953   17.6149 C   0  0  0  0  0  0  0  0  0  0  0  0
    2.0829    0.4261   17.2078 N   0  0  0  0  0  0  0  0  0  0  0  0
    3.3691   -0.2750   16.9528 C   0  0  0  0  0  0  0  0  0  0  0  0
    3.7510   -1.1168   18.1739 C   0  0  0  0  0  0  0  0  0  0  0  0
    3.7407   -2.5506   17.8065 N   0  0  0  0  0  0  0  0  0  0  0  0
    2.8418   -3.2911   18.7379 C   0  0  0  0  0  0  0  0  0  0  0  0
    5.1277   -3.0903   17.8832 C   0  0  0  0  0  0  0  0  0  0  0  0
    2.8316   -4.7816   18.3618 C   0  0  0  0  0  0  0  0  0  0  0  0
    5.1181   -4.5838   17.5103 C   0  0  0  0  0  0  0  0  0  0  0  0
    4.2184   -5.3222   18.4395 N   0  0  0  0  0  0  0  0  0  0  0  0
   -0.6151    4.4478   15.5991 C   0  0  0  0  0  0  0  0  0  0  0  0
   -6.3189    3.7996   12.6978 N   0  0  0  0  0  0  0  0  0  0  0  0
   -1.2419    3.2971   15.0641 C   0  0  0  0  0  0  0  0  0  0  0  0
   -0.6122    2.0293   15.1803 C   0  0  0  0  0  0  0  0  0  0  0  0
    0.6446    1.9117   15.8351 C   0  0  0  0  0  0  0  0  0  0  0  0
    1.2826    3.0758   16.3594 C   0  0  0  0  0  0  0  0  0  0  0  0
    0.6460    4.3418   16.2429 C   0  0  0  0  0  0  0  0  0  0  0  0
   -7.0801    3.5534   13.8630 C   0  0  0  0  0  0  0  0  0  0  0  0
   -6.2402    3.2944   14.9698 C   0  0  0  0  0  0  0  0  0  0  0  0
   -3.6851    3.2453   15.1521 C   0  0  0  0  0  0  0  0  0  0  0  0
   -2.4803    3.4211   14.4186 C   0  0  0  0  0  0  0  0  0  0  0  0
   -2.5335    3.7295   13.0314 C   0  0  0  0  0  0  0  0  0  0  0  0
   -3.7895    3.8640   12.3804 C   0  0  0  0  0  0  0  0  0  0  0  0
   -4.9999    3.7003   13.1241 C   0  0  0  0  0  0  0  0  0  0  0  0
   -4.9493    3.3945   14.4964 C   0  0  0  0  0  0  0  0  0  0  0  0
  1  6  1  0  0  0  0
  2  4  1  0  0  0  0
  3  7  1  0  0  0  0
  4  5  1  0  0  0  0
  6  2  1  0  0  0  0
  7  8  1  0  0  0  0
  8  9  1  0  0  0  0
  9 10  1  0  0  0  0
 10 11  1  0  0  0  0
 10 12  1  0  0  0  0
 11 13  1  0  0  0  0
 13 15  1  0  0  0  0
 14 12  1  0  0  0  0
 15 14  1  0  0  0  0
 16 18  2  0  0  0  0
 16 22  1  0  0  0  0
 17 23  1  0  0  0  0
 17 29  1  0  0  0  0
 18 19  1  0  0  0  0
 18 26  1  0  0  0  0
 19 20  2  0  0  0  0
 20  3  1  0  0  0  0
 20 21  1  0  0  0  0
 21  5  1  0  0  0  0
 21 22  2  0  0  0  0
 23 24  2  0  0  0  0
 24 30  1  0  0  0  0
 25 26  2  0  0  0  0
 25 30  1  0  0  0  0
 26 27  1  0  0  0  0
 27 28  2  0  0  0  0
 28 29  1  0  0  0  0
 29 30  2  0  0  0  0
M  END
>  <CHROM.1>
-61.72824651,-74.02993270,-139.15490976,176.13183003,-71.62813672,-145.62046270
115.40878255,-125.01656356,-92.59607906,-147.27716156,94.09416837,0.66744822
1.46267745,16.07007846,-0.61786644,-0.31296108,-0.18998773

>  <Name>
1uts_lig

>  <RI>
0

>  <Rbt.Current_Directory>
/home/itssahil/PROJECTS/Mol_Feturizer/New_Systems/rnas/1uts

>  <Rbt.Executable>
rbdock ($Id: //depot/dev/client3/rdock/2013.1/src/exe/rbdock.cxx#4 $)

>  <Rbt.Library>
libRbt.so (2013.1, Build901 2013/11/27)

>  <Rbt.Parameter_File>
/export/apps/rDock/src/rDock_2013.1_src/data/scripts/dock_solv.prm

>  <Rbt.Receptor>
prm/pocket_docking_5.prm

>  <SCORE>
-32.4192

>  <SCORE.INTER>
-33.6587

>  <SCORE.INTER.CONST>
1

>  <SCORE.INTER.POLAR>
-2.11726

>  <SCORE.INTER.ROT>
10

>  <SCORE.INTER.SOLV>
11.3793

>  <SCORE.INTER.VDW>
-29.4414

>  <SCORE.INTER.norm>
-1.12196

>  <SCORE.INTRA>
1.23952

>  <SCORE.INTRA.DIHEDRAL>
7.48729

>  <SCORE.INTRA.DIHEDRAL.0>
18.0451

>  <SCORE.INTRA.POLAR>
-0.608805

>  <SCORE.INTRA.POLAR.0>
-0.196815

>  <SCORE.INTRA.REPUL>
0

>  <SCORE.INTRA.REPUL.0>
0

>  <SCORE.INTRA.SOLV>
0.0716579

>  <SCORE.INTRA.SOLV.lig_0>
-14.7906

>  <SCORE.INTRA.VDW>
-0.470018

>  <SCORE.INTRA.VDW.0>
-0.411701

>  <SCORE.INTRA.norm>
0.0413173

>  <SCORE.RESTR>
0

>  <SCORE.RESTR.CAVITY>
0

>  <SCORE.RESTR.norm>
0

>  <SCORE.SYSTEM>
0

>  <SCORE.SYSTEM.CONST>
0

>  <SCORE.SYSTEM.DIHEDRAL>
0

>  <SCORE.SYSTEM.SOLV>
0

>  <SCORE.SYSTEM.norm>
0

>  <SCORE.heavy>
30

>  <SCORE.norm>
-1.08064

>  <RMSD>
2.225

$$$$
1uts_lig
 OpenBabel11021811413D
libRbt.so/2013.1/901 2013/11/27
 30 33  0  0  0  0  0  0  0  0999 V2000
    4.3053    6.1279   18.6637 N   0  0  0  0  0  0  0  0  0  0  0  0
    2.0208    6.7759   19.2948 C   0  0  0  0  0  0  0  0  0  0  0  0
    2.8603    3.7103   15.7644 C   0  0  0  0  0  0  0  0  0  0  0  0
    1.4724    5.3609   19.5000 C   0  0  0  0  0  0  0  0  0  0  0  0
    1.9563    4.5063   18.4533 O   0  0  0  0  0  0  0  0  0  0  0  0
    3.4966    6.8157   19.6954 C   0  0  0  0  0  0  0  0  0  0  0  0
    3.4249    2.8054   16.7913 N   0  0  0  0  0  0  0  0  0  0  0  0
    2.9723    1.4124   16.5348 C   0  0  0  0  0  0  0  0  0  0  0  0
    3.5460    0.4766   17.6028 C   0  0  0  0  0  0  0  0  0  0  0  0
    3.0052   -0.8869   17.4049 N   0  0  0  0  0  0  0  0  0  0  0  0
    1.5308   -0.8690   17.6275 C   0  0  0  0  0  0  0  0  0  0  0  0
    3.6639   -1.8231   18.3591 C   0  0  0  0  0  0  0  0  0  0  0  0
    0.9660   -2.2846   17.4265 C   0  0  0  0  0  0  0  0  0  0  0  0
    3.0964   -3.2403   18.1613 C   0  0  0  0  0  0  0  0  0  0  0  0
    1.6235   -3.2211   18.3815 N   0  0  0  0  0  0  0  0  0  0  0  0
   -1.3414    4.6165   16.6244 C   0  0  0  0  0  0  0  0  0  0  0  0
   -4.6083    4.0087   11.0546 N   0  0  0  0  0  0  0  0  0  0  0  0
   -0.9450    4.2550   15.3146 C   0  0  0  0  0  0  0  0  0  0  0  0
    0.4182    3.9631   15.0427 C   0  0  0  0  0  0  0  0  0  0  0  0
    1.3856    4.0297   16.0826 C   0  0  0  0  0  0  0  0  0  0  0  0
    0.9865    4.4103   17.3991 C   0  0  0  0  0  0  0  0  0  0  0  0
   -0.3800    4.6984   17.6660 C   0  0  0  0  0  0  0  0  0  0  0  0
   -3.6935    4.3084   10.0197 C   0  0  0  0  0  0  0  0  0  0  0  0
   -2.3983    4.5321   10.5394 C   0  0  0  0  0  0  0  0  0  0  0  0
   -1.5261    4.4422   12.9467 C   0  0  0  0  0  0  0  0  0  0  0  0
   -1.9043    4.1929   14.2940 C   0  0  0  0  0  0  0  0  0  0  0  0
   -3.2550    3.8737   14.6037 C   0  0  0  0  0  0  0  0  0  0  0  0
   -4.2245    3.8019   13.5671 C   0  0  0  0  0  0  0  0  0  0  0  0
   -3.8381    4.0396   12.2110 C   0  0  0  0  0  0  0  0  0  0  0  0
   -2.5024    4.3561   11.9028 C   0  0  0  0  0  0  0  0  0  0  0  0
  1  6  1  0  0  0  0
  2  4  1  0  0  0  0
  3  7  1  0  0  0  0
  4  5  1  0  0  0  0
  6  2  1  0  0  0  0
  7  8  1  0  0  0  0
  8  9  1  0  0  0  0
  9 10  1  0  0  0  0
 10 11  1  0  0  0  0
 10 12  1  0  0  0  0
 11 13  1  0  0  0  0
 13 15  1  0  0  0  0
 14 12  1  0  0  0  0
 15 14  1  0  0  0  0
 16 18  2  0  0  0  0
 16 22  1  0  0  0  0
 17 23  1  0  0  0  0
 17 29  1  0  0  0  0
 18 19  1  0  0  0  0
 18 26  1  0  0  0  0
 19 20  2  0  0  0  0
 20  3  1  0  0  0  0
 20 21  1  0  0  0  0
 21  5  1  0  0  0  0
 21 22  2  0  0  0  0
 23 24  2  0  0  0  0
 24 30  1  0  0  0  0
 25 26  2  0  0  0  0
 25 30  1  0  0  0  0
 26 27  1  0  0  0  0
 27 28  2  0  0  0  0
 28 29  1  0  0  0  0
 29 30  2  0  0  0  0
M  END
>  <CHROM.1>
86.67286294,-75.02472186,78.31640936,-95.83734702,73.56007927,-179.53603338
175.51929573,-64.47828069,151.20897121,-133.98020629,157.99192836,0.54768561
2.90070828,16.08619323,-0.35602068,-0.80091126,0.09285327

>  <Name>
1uts_lig

>  <RI>
0

>  <Rbt.Current_Directory>
/home/itssahil/PROJECTS/Mol_Feturizer/New_Systems/rnas/1uts

>  <Rbt.Executable>
rbdock ($Id: //depot/dev/client3/rdock/2013.1/src/exe/rbdock.cxx#4 $)

>  <Rbt.Library>
libRbt.so (2013.1, Build901 2013/11/27)

>  <Rbt.Parameter_File>
/export/apps/rDock/src/rDock_2013.1_src/data/scripts/dock_solv.prm

>  <Rbt.Receptor>
prm/pocket_docking_3.prm

>  <SCORE>
-33.5045

>  <SCORE.INTER>
-29.5618

>  <SCORE.INTER.CONST>
1

>  <SCORE.INTER.POLAR>
-1.33731

>  <SCORE.INTER.ROT>
10

>  <SCORE.INTER.SOLV>
9.94005

>  <SCORE.INTER.VDW>
-28.8302

>  <SCORE.INTER.norm>
-0.985394

>  <SCORE.INTRA>
-3.9427

>  <SCORE.INTRA.DIHEDRAL>
-6.98522

>  <SCORE.INTRA.DIHEDRAL.0>
18.0451

>  <SCORE.INTRA.POLAR>
-1.3214

>  <SCORE.INTRA.POLAR.0>
-0.196815

>  <SCORE.INTRA.REPUL>
0

>  <SCORE.INTRA.REPUL.0>
0

>  <SCORE.INTRA.SOLV>
0.313041

>  <SCORE.INTRA.SOLV.lig_0>
-14.7906

>  <SCORE.INTRA.VDW>
3.88615

>  <SCORE.INTRA.VDW.0>
-0.411701

>  <SCORE.INTRA.norm>
-0.131423

>  <SCORE.RESTR>
0

>  <SCORE.RESTR.CAVITY>
0

>  <SCORE.RESTR.norm>
0

>  <SCORE.SYSTEM>
0

>  <SCORE.SYSTEM.CONST>
0

>  <SCORE.SYSTEM.DIHEDRAL>
0

>  <SCORE.SYSTEM.SOLV>
0

>  <SCORE.SYSTEM.norm>
0

>  <SCORE.heavy>
30

>  <SCORE.norm>
-1.11682

>  <RMSD>
2.245

$$$$
1uts_lig
 OpenBabel11021811413D
libRbt.so/2013.1/901 2013/11/27
 30 33  0  0  0  0  0  0  0  0999 V2000
    2.2981    2.3685   21.8412 N   0  0  0  0  0  0  0  0  0  0  0  0
    1.8937    2.9038   19.4775 C   0  0  0  0  0  0  0  0  0  0  0  0
    2.7602    4.1874   16.0695 C   0  0  0  0  0  0  0  0  0  0  0  0
    1.5635    4.3595   19.8196 C   0  0  0  0  0  0  0  0  0  0  0  0
    1.8430    5.1908   18.6835 O   0  0  0  0  0  0  0  0  0  0  0  0
    1.5014    2.0014   20.6488 C   0  0  0  0  0  0  0  0  0  0  0  0
    3.0455    2.7460   16.2516 N   0  0  0  0  0  0  0  0  0  0  0  0
    4.4342    2.5697   16.7530 C   0  0  0  0  0  0  0  0  0  0  0  0
    4.8310    1.0929   16.6705 C   0  0  0  0  0  0  0  0  0  0  0  0
    3.8514    0.2768   17.4223 N   0  0  0  0  0  0  0  0  0  0  0  0
    4.5312   -0.9364   17.9607 C   0  0  0  0  0  0  0  0  0  0  0  0
    2.7337   -0.1122   16.5166 C   0  0  0  0  0  0  0  0  0  0  0  0
    3.5157   -1.7885   18.7391 C   0  0  0  0  0  0  0  0  0  0  0  0
    1.7180   -0.9687   17.2940 C   0  0  0  0  0  0  0  0  0  0  0  0
    2.3982   -2.1789   17.8334 N   0  0  0  0  0  0  0  0  0  0  0  0
   -1.4660    5.0224   16.8797 C   0  0  0  0  0  0  0  0  0  0  0  0
   -4.7407    3.8220   11.4129 N   0  0  0  0  0  0  0  0  0  0  0  0
   -1.0641    4.5583   15.6044 C   0  0  0  0  0  0  0  0  0  0  0  0
    0.3070    4.2901   15.3484 C   0  0  0  0  0  0  0  0  0  0  0  0
    1.2770    4.4833   16.3700 C   0  0  0  0  0  0  0  0  0  0  0  0
    0.8717    4.9669   17.6503 C   0  0  0  0  0  0  0  0  0  0  0  0
   -0.5027    5.2308   17.9017 C   0  0  0  0  0  0  0  0  0  0  0  0
   -3.8683    4.1604   10.3536 C   0  0  0  0  0  0  0  0  0  0  0  0
   -2.5921    4.5179   10.8446 C   0  0  0  0  0  0  0  0  0  0  0  0
   -1.6873    4.6001   13.2402 C   0  0  0  0  0  0  0  0  0  0  0  0
   -2.0260    4.3716   14.6016 C   0  0  0  0  0  0  0  0  0  0  0  0
   -3.3393    3.9468   14.9436 C   0  0  0  0  0  0  0  0  0  0  0  0
   -4.3107    3.7489   13.9254 C   0  0  0  0  0  0  0  0  0  0  0  0
   -3.9628    3.9663   12.5554 C   0  0  0  0  0  0  0  0  0  0  0  0
   -2.6642    4.3872   12.2152 C   0  0  0  0  0  0  0  0  0  0  0  0
  1  6  1  0  0  0  0
  2  4  1  0  0  0  0
  3  7  1  0  0  0  0
  4  5  1  0  0  0  0
  6  2  1  0  0  0  0
  7  8  1  0  0  0  0
  8  9  1  0  0  0  0
  9 10  1  0  0  0  0
 10 11  1  0  0  0  0
 10 12  1  0  0  0  0
 11 13  1  0  0  0  0
 13 15  1  0  0  0  0
 14 12  1  0  0  0  0
 15 14  1  0  0  0  0
 16 18  2  0  0  0  0
 16 22  1  0  0  0  0
 17 23  1  0  0  0  0
 17 29  1  0  0  0  0
 18 19  1  0  0  0  0
 18 26  1  0  0  0  0
 19 20  2  0  0  0  0
 20  3  1  0  0  0  0
 20 21  1  0  0  0  0
 21  5  1  0  0  0  0
 21 22  2  0  0  0  0
 23 24  2  0  0  0  0
 24 30  1  0  0  0  0
 25 26  2  0  0  0  0
 25 30  1  0  0  0  0
 26 27  1  0  0  0  0
 27 28  2  0  0  0  0
 28 29  1  0  0  0  0
 29 30  2  0  0  0  0
M  END
>  <CHROM.1>
-50.50899242,-175.88349442,-146.74125277,71.65612572,-62.47439526,-168.46375316
-56.17359745,-150.31608498,146.92865243,-84.16590950,-119.08704168,0.57336262
2.82490048,16.32924150,0.17793564,-0.80850991,0.77094566

>  <Name>
1uts_lig

>  <RI>
0

>  <Rbt.Current_Directory>
/home/itssahil/PROJECTS/Mol_Feturizer/New_Systems/rnas/1uts

>  <Rbt.Executable>
rbdock ($Id: //depot/dev/client3/rdock/2013.1/src/exe/rbdock.cxx#4 $)

>  <Rbt.Library>
libRbt.so (2013.1, Build901 2013/11/27)

>  <Rbt.Parameter_File>
/export/apps/rDock/src/rDock_2013.1_src/data/scripts/dock_solv.prm

>  <Rbt.Receptor>
prm/pocket_docking_4.prm

>  <SCORE>
-29.3237

>  <SCORE.INTER>
-26.6462

>  <SCORE.INTER.CONST>
1

>  <SCORE.INTER.POLAR>
-0.8

>  <SCORE.INTER.ROT>
10

>  <SCORE.INTER.SOLV>
10.1579

>  <SCORE.INTER.VDW>
-28.7501

>  <SCORE.INTER.norm>
-0.888207

>  <SCORE.INTRA>
-2.67744

>  <SCORE.INTRA.DIHEDRAL>
-7.09149

>  <SCORE.INTRA.DIHEDRAL.0>
18.0451

>  <SCORE.INTRA.POLAR>
0.196815

>  <SCORE.INTRA.POLAR.0>
-0.196815

>  <SCORE.INTRA.REPUL>
0

>  <SCORE.INTRA.REPUL.0>
0

>  <SCORE.INTRA.SOLV>
0.000242606

>  <SCORE.INTRA.SOLV.lig_0>
-14.7906

>  <SCORE.INTRA.VDW>
0.19901

>  <SCORE.INTRA.VDW.0>
-0.411701

>  <SCORE.INTRA.norm>
-0.089248

>  <SCORE.RESTR>
0

>  <SCORE.RESTR.CAVITY>
0

>  <SCORE.RESTR.norm>
0

>  <SCORE.SYSTEM>
0

>  <SCORE.SYSTEM.CONST>
0

>  <SCORE.SYSTEM.DIHEDRAL>
0

>  <SCORE.SYSTEM.SOLV>
0

>  <SCORE.SYSTEM.norm>
0

>  <SCORE.heavy>
30

>  <SCORE.norm>
-0.977455

>  <RMSD>
2.246

$$$$
1uts_lig
 OpenBabel11021811413D
libRbt.so/2013.1/901 2013/11/27
 30 33  0  0  0  0  0  0  0  0999 V2000
    4.3821    6.6336   19.3935 N   0  0  0  0  0  0  0  0  0  0  0  0
    2.2077    5.5744   18.9606 C   0  0  0  0  0  0  0  0  0  0  0  0
    1.4632    1.8615   17.1177 C   0  0  0  0  0  0  0  0  0  0  0  0
    1.0438    5.0060   19.7776 C   0  0  0  0  0  0  0  0  0  0  0  0
    0.7534    3.6738   19.3297 O   0  0  0  0  0  0  0  0  0  0  0  0
    2.9569    6.6160   19.7936 C   0  0  0  0  0  0  0  0  0  0  0  0
    0.9721    0.4967   17.4150 N   0  0  0  0  0  0  0  0  0  0  0  0
    1.9706   -0.5056   16.9574 C   0  0  0  0  0  0  0  0  0  0  0  0
    3.1921   -0.4785   17.8809 C   0  0  0  0  0  0  0  0  0  0  0  0
    4.0870   -1.6094   17.5473 N   0  0  0  0  0  0  0  0  0  0  0  0
    3.6648   -2.8149   18.3168 C   0  0  0  0  0  0  0  0  0  0  0  0
    5.4920   -1.2435   17.8835 C   0  0  0  0  0  0  0  0  0  0  0  0
    4.5945   -3.9907   17.9758 C   0  0  0  0  0  0  0  0  0  0  0  0
    6.4235   -2.4216   17.5459 C   0  0  0  0  0  0  0  0  0  0  0  0
    5.9997   -3.6259   18.3130 N   0  0  0  0  0  0  0  0  0  0  0  0
   -1.8966    4.6625   16.8334 C   0  0  0  0  0  0  0  0  0  0  0  0
   -4.4255    4.1040   10.9001 N   0  0  0  0  0  0  0  0  0  0  0  0
   -1.5773    3.8210   15.7410 C   0  0  0  0  0  0  0  0  0  0  0  0
   -0.4870    2.9160   15.8396 C   0  0  0  0  0  0  0  0  0  0  0  0
    0.2829    2.8503   17.0333 C   0  0  0  0  0  0  0  0  0  0  0  0
   -0.0307    3.7112   18.1277 C   0  0  0  0  0  0  0  0  0  0  0  0
   -1.1251    4.6130   18.0244 C   0  0  0  0  0  0  0  0  0  0  0  0
   -3.3206    4.3795   10.0629 C   0  0  0  0  0  0  0  0  0  0  0  0
   -2.1267    4.4667   10.8143 C   0  0  0  0  0  0  0  0  0  0  0  0
   -1.7092    4.1791   13.3257 C   0  0  0  0  0  0  0  0  0  0  0  0
   -2.3400    3.8925   14.5668 C   0  0  0  0  0  0  0  0  0  0  0  0
   -3.7440    3.6718   14.6141 C   0  0  0  0  0  0  0  0  0  0  0  0
   -4.5146    3.7354   13.4218 C   0  0  0  0  0  0  0  0  0  0  0  0
   -3.8750    4.0102   12.1726 C   0  0  0  0  0  0  0  0  0  0  0  0
   -2.4861    4.2294   12.1239 C   0  0  0  0  0  0  0  0  0  0  0  0
  1  6  1  0  0  0  0
  2  4  1  0  0  0  0
  3  7  1  0  0  0  0
  4  5  1  0  0  0  0
  6  2  1  0  0  0  0
  7  8  1  0  0  0  0
  8  9  1  0  0  0  0
  9 10  1  0  0  0  0
 10 11  1  0  0  0  0
 10 12  1  0  0  0  0
 11 13  1  0  0  0  0
 13 15  1  0  0  0  0
 14 12  1  0  0  0  0
 15 14  1  0  0  0  0
 16 18  2  0  0  0  0
 16 22  1  0  0  0  0
 17 23  1  0  0  0  0
 17 29  1  0  0  0  0
 18 19  1  0  0  0  0
 18 26  1  0  0  0  0
 19 20  2  0  0  0  0
 20  3  1  0  0  0  0
 20 21  1  0  0  0  0
 21  5  1  0  0  0  0
 21 22  2  0  0  0  0
 23 24  2  0  0  0  0
 24 30  1  0  0  0  0
 25 26  2  0  0  0  0
 25 30  1  0  0  0  0
 26 27  1  0  0  0  0
 27 28  2  0  0  0  0
 28 29  1  0  0  0  0
 29 30  2  0  0  0  0
M  END
>  <CHROM.1>
75.60436754,-152.71898443,156.93556842,-79.79928278,149.91622348,72.01130863
171.54001017,-87.50121151,122.74622694,-80.20238909,135.70699906,0.70257123
2.33174312,16.38327105,-0.19558339,-0.77309224,0.54005969

>  <Name>
1uts_lig

>  <RI>
0

>  <Rbt.Current_Directory>
/home/itssahil/PROJECTS/Mol_Feturizer/New_Systems/rnas/1uts

>  <Rbt.Executable>
rbdock ($Id: //depot/dev/client3/rdock/2013.1/src/exe/rbdock.cxx#4 $)

>  <Rbt.Library>
libRbt.so (2013.1, Build901 2013/11/27)

>  <Rbt.Parameter_File>
/export/apps/rDock/src/rDock_2013.1_src/data/scripts/dock_solv.prm

>  <Rbt.Receptor>
prm/pocket_docking_3.prm

>  <SCORE>
-21.133

>  <SCORE.INTER>
-22.9158

>  <SCORE.INTER.CONST>
1

>  <SCORE.INTER.POLAR>
-1.43246

>  <SCORE.INTER.ROT>
10

>  <SCORE.INTER.SOLV>
8.28349

>  <SCORE.INTER.VDW>
-23.5302

>  <SCORE.INTER.norm>
-0.763861

>  <SCORE.INTRA>
1.72334

>  <SCORE.INTRA.DIHEDRAL>
-0.731891

>  <SCORE.INTRA.DIHEDRAL.0>
18.0451

>  <SCORE.INTRA.POLAR>
0.196815

>  <SCORE.INTRA.POLAR.0>
-0.196815

>  <SCORE.INTRA.REPUL>
0

>  <SCORE.INTRA.REPUL.0>
0

>  <SCORE.INTRA.SOLV>
-0.658255

>  <SCORE.INTRA.SOLV.lig_0>
-14.7906

>  <SCORE.INTRA.VDW>
1.74924

>  <SCORE.INTRA.VDW.0>
-0.411701

>  <SCORE.INTRA.norm>
0.0574446

>  <SCORE.RESTR>
0.0594695

>  <SCORE.RESTR.CAVITY>
0.0594695

>  <SCORE.RESTR.norm>
0.00198232

>  <SCORE.SYSTEM>
0

>  <SCORE.SYSTEM.CONST>
0

>  <SCORE.SYSTEM.DIHEDRAL>
0

>  <SCORE.SYSTEM.SOLV>
0

>  <SCORE.SYSTEM.norm>
0

>  <SCORE.heavy>
30

>  <SCORE.norm>
-0.704434

>  <RMSD>
2.252

$$$$
1uts_lig
 OpenBabel11021811413D
libRbt.so/2013.1/901 2013/11/27
 30 33  0  0  0  0  0  0  0  0999 V2000
    4.0166    5.9583   18.5941 N   0  0  0  0  0  0  0  0  0  0  0  0
    3.6636    4.6163   16.5664 C   0  0  0  0  0  0  0  0  0  0  0  0
    1.0243    0.0887   15.9279 C   0  0  0  0  0  0  0  0  0  0  0  0
    3.5953    3.1836   16.0299 C   0  0  0  0  0  0  0  0  0  0  0  0
    2.5770    2.4590   16.7355 O   0  0  0  0  0  0  0  0  0  0  0  0
    4.1166    4.5944   18.0274 C   0  0  0  0  0  0  0  0  0  0  0  0
    1.6251   -0.0388   17.2751 N   0  0  0  0  0  0  0  0  0  0  0  0
    2.1165   -1.4279   17.4749 C   0  0  0  0  0  0  0  0  0  0  0  0
    2.8215   -1.5378   18.8300 C   0  0  0  0  0  0  0  0  0  0  0  0
    3.2524   -2.9368   19.0491 N   0  0  0  0  0  0  0  0  0  0  0  0
    3.6274   -3.1180   20.4810 C   0  0  0  0  0  0  0  0  0  0  0  0
    4.4130   -3.2407   18.1651 C   0  0  0  0  0  0  0  0  0  0  0  0
    4.0791   -4.5692   20.7116 C   0  0  0  0  0  0  0  0  0  0  0  0
    4.8686   -4.6925   18.3978 C   0  0  0  0  0  0  0  0  0  0  0  0
    5.2407   -4.8733   19.8286 N   0  0  0  0  0  0  0  0  0  0  0  0
   -0.4439    4.1633   15.2519 C   0  0  0  0  0  0  0  0  0  0  0  0
   -6.2638    3.8747   12.5015 N   0  0  0  0  0  0  0  0  0  0  0  0
   -1.2125    3.0512   14.8326 C   0  0  0  0  0  0  0  0  0  0  0  0
   -0.7307    1.7336   15.0543 C   0  0  0  0  0  0  0  0  0  0  0  0
    0.5200    1.5279   15.6989 C   0  0  0  0  0  0  0  0  0  0  0  0
    1.3010    2.6509   16.1062 C   0  0  0  0  0  0  0  0  0  0  0  0
    0.8121    3.9675   15.8844 C   0  0  0  0  0  0  0  0  0  0  0  0
   -7.0374    3.4902   13.6201 C   0  0  0  0  0  0  0  0  0  0  0  0
   -6.2096    3.0904   14.6936 C   0  0  0  0  0  0  0  0  0  0  0  0
   -3.6566    3.0037   14.8914 C   0  0  0  0  0  0  0  0  0  0  0  0
   -2.4439    3.2619   14.1964 C   0  0  0  0  0  0  0  0  0  0  0  0
   -2.4822    3.7407   12.8579 C   0  0  0  0  0  0  0  0  0  0  0  0
   -3.7311    3.9627   12.2173 C   0  0  0  0  0  0  0  0  0  0  0  0
   -4.9495    3.7152   12.9239 C   0  0  0  0  0  0  0  0  0  0  0  0
   -4.9136    3.2409   14.2480 C   0  0  0  0  0  0  0  0  0  0  0  0
  1  6  1  0  0  0  0
  2  4  1  0  0  0  0
  3  7  1  0  0  0  0
  4  5  1  0  0  0  0
  6  2  1  0  0  0  0
  7  8  1  0  0  0  0
  8  9  1  0  0  0  0
  9 10  1  0  0  0  0
 10 11  1  0  0  0  0
 10 12  1  0  0  0  0
 11 13  1  0  0  0  0
 13 15  1  0  0  0  0
 14 12  1  0  0  0  0
 15 14  1  0  0  0  0
 16 18  2  0  0  0  0
 16 22  1  0  0  0  0
 17 23  1  0  0  0  0
 17 29  1  0  0  0  0
 18 19  1  0  0  0  0
 18 26  1  0  0  0  0
 19 20  2  0  0  0  0
 20  3  1  0  0  0  0
 20 21  1  0  0  0  0
 21  5  1  0  0  0  0
 21 22  2  0  0  0  0
 23 24  2  0  0  0  0
 24 30  1  0  0  0  0
 25 26  2  0  0  0  0
 25 30  1  0  0  0  0
 26 27  1  0  0  0  0
 27 28  2  0  0  0  0
 28 29  1  0  0  0  0
 29 30  2  0  0  0  0
M  END
>  <CHROM.1>
-56.60659792,64.86771526,-179.50920968,86.93935510,-172.84833448,176.23816054
177.39959351,-166.14443289,-106.54456037,-138.41335750,125.47133991,0.50953637
1.34798837,16.36061140,-0.67771090,-0.42521714,-0.23459887

>  <Name>
1uts_lig

>  <RI>
0

>  <Rbt.Current_Directory>
/home/itssahil/PROJECTS/Mol_Feturizer/New_Systems/rnas/1uts

>  <Rbt.Executable>
rbdock ($Id: //depot/dev/client3/rdock/2013.1/src/exe/rbdock.cxx#4 $)

>  <Rbt.Library>
libRbt.so (2013.1, Build901 2013/11/27)

>  <Rbt.Parameter_File>
/export/apps/rDock/src/rDock_2013.1_src/data/scripts/dock_solv.prm

>  <Rbt.Receptor>
prm/pocket_docking_3.prm

>  <SCORE>
-26.4451

>  <SCORE.INTER>
-22.6425

>  <SCORE.INTER.CONST>
1

>  <SCORE.INTER.POLAR>
-0.686697

>  <SCORE.INTER.ROT>
10

>  <SCORE.INTER.SOLV>
9.63641

>  <SCORE.INTER.VDW>
-26.2848

>  <SCORE.INTER.norm>
-0.75475

>  <SCORE.INTRA>
-3.80486

>  <SCORE.INTRA.DIHEDRAL>
-5.90798

>  <SCORE.INTRA.DIHEDRAL.0>
18.0451

>  <SCORE.INTRA.POLAR>
-0.397863

>  <SCORE.INTRA.POLAR.0>
-0.196815

>  <SCORE.INTRA.REPUL>
0

>  <SCORE.INTRA.REPUL.0>
0

>  <SCORE.INTRA.SOLV>
-0.304565

>  <SCORE.INTRA.SOLV.lig_0>
-14.7906

>  <SCORE.INTRA.VDW>
0.65415

>  <SCORE.INTRA.VDW.0>
-0.411701

>  <SCORE.INTRA.norm>
-0.126829

>  <SCORE.RESTR>
0.00224301

>  <SCORE.RESTR.CAVITY>
0.00224301

>  <SCORE.RESTR.norm>
7.47671e-05

>  <SCORE.SYSTEM>
0

>  <SCORE.SYSTEM.CONST>
0

>  <SCORE.SYSTEM.DIHEDRAL>
0

>  <SCORE.SYSTEM.SOLV>
0

>  <SCORE.SYSTEM.norm>
0

>  <SCORE.heavy>
30

>  <SCORE.norm>
-0.881504

>  <RMSD>
2.257

$$$$
1uts_lig
 OpenBabel11021811413D
libRbt.so/2013.1/901 2013/11/27
 30 33  0  0  0  0  0  0  0  0999 V2000
    4.6520    6.0052   21.8463 N   0  0  0  0  0  0  0  0  0  0  0  0
    3.3431    6.7189   19.8932 C   0  0  0  0  0  0  0  0  0  0  0  0
    2.9134    4.1425   15.7395 C   0  0  0  0  0  0  0  0  0  0  0  0
    2.0948    6.4179   19.0587 C   0  0  0  0  0  0  0  0  0  0  0  0
    2.2398    5.1358   18.4303 O   0  0  0  0  0  0  0  0  0  0  0  0
    3.4747    5.6812   21.0094 C   0  0  0  0  0  0  0  0  0  0  0  0
    3.5510    3.1959   16.6826 N   0  0  0  0  0  0  0  0  0  0  0  0
    2.8998    1.8637   16.5720 C   0  0  0  0  0  0  0  0  0  0  0  0
    3.5583    0.8830   17.5467 C   0  0  0  0  0  0  0  0  0  0  0  0
    4.6711    0.1840   16.8656 N   0  0  0  0  0  0  0  0  0  0  0  0
    4.9241   -1.1187   17.5459 C   0  0  0  0  0  0  0  0  0  0  0  0
    5.8912    1.0386   16.9082 C   0  0  0  0  0  0  0  0  0  0  0  0
    6.0821   -1.8460   16.8434 C   0  0  0  0  0  0  0  0  0  0  0  0
    7.0525    0.3098   16.2084 C   0  0  0  0  0  0  0  0  0  0  0  0
    7.3030   -0.9923   16.8869 N   0  0  0  0  0  0  0  0  0  0  0  0
   -1.2198    4.9821   16.9339 C   0  0  0  0  0  0  0  0  0  0  0  0
   -4.9792    3.8026   11.7828 N   0  0  0  0  0  0  0  0  0  0  0  0
   -0.9365    4.5230   15.6254 C   0  0  0  0  0  0  0  0  0  0  0  0
    0.4051    4.2533   15.2447 C   0  0  0  0  0  0  0  0  0  0  0  0
    1.4643    4.4400   16.1748 C   0  0  0  0  0  0  0  0  0  0  0  0
    1.1781    4.9186   17.4887 C   0  0  0  0  0  0  0  0  0  0  0  0
   -0.1671    5.1839   17.8651 C   0  0  0  0  0  0  0  0  0  0  0  0
   -4.1911    4.0867   10.6444 C   0  0  0  0  0  0  0  0  0  0  0  0
   -2.8674    4.4150   11.0154 C   0  0  0  0  0  0  0  0  0  0  0  0
   -1.7585    4.5269   13.3224 C   0  0  0  0  0  0  0  0  0  0  0  0
   -1.9859    4.3428   14.7133 C   0  0  0  0  0  0  0  0  0  0  0  0
   -3.2772    3.9688   15.1771 C   0  0  0  0  0  0  0  0  0  0  0  0
   -4.3377    3.7774   14.2507 C   0  0  0  0  0  0  0  0  0  0  0  0
   -4.1023    3.9498   12.8508 C   0  0  0  0  0  0  0  0  0  0  0  0
   -2.8256    4.3203   12.3902 C   0  0  0  0  0  0  0  0  0  0  0  0
  1  6  1  0  0  0  0
  2  4  1  0  0  0  0
  3  7  1  0  0  0  0
  4  5  1  0  0  0  0
  6  2  1  0  0  0  0
  7  8  1  0  0  0  0
  8  9  1  0  0  0  0
  9 10  1  0  0  0  0
 10 11  1  0  0  0  0
 10 12  1  0  0  0  0
 11 13  1  0  0  0  0
 13 15  1  0  0  0  0
 14 12  1  0  0  0  0
 15 14  1  0  0  0  0
 16 18  2  0  0  0  0
 16 22  1  0  0  0  0
 17 23  1  0  0  0  0
 17 29  1  0  0  0  0
 18 19  1  0  0  0  0
 18 26  1  0  0  0  0
 19 20  2  0  0  0  0
 20  3  1  0  0  0  0
 20 21  1  0  0  0  0
 21  5  1  0  0  0  0
 21 22  2  0  0  0  0
 23 24  2  0  0  0  0
 24 30  1  0  0  0  0
 25 26  2  0  0  0  0
 25 30  1  0  0  0  0
 26 27  1  0  0  0  0
 27 28  2  0  0  0  0
 28 29  1  0  0  0  0
 29 30  2  0  0  0  0
M  END
>  <CHROM.1>
56.39254330,-62.81688327,67.69353752,-171.41867337,-177.80115684,179.98806527
-91.00236116,-155.94562628,149.34903322,-126.22555419,132.55597692,1.37282041
3.38610194,16.24214002,0.15122203,-0.56353552,0.75674037

>  <Name>
1uts_lig

>  <RI>
0

>  <Rbt.Current_Directory>
/home/itssahil/PROJECTS/Mol_Feturizer/New_Systems/rnas/1uts

>  <Rbt.Executable>
rbdock ($Id: //depot/dev/client3/rdock/2013.1/src/exe/rbdock.cxx#4 $)

>  <Rbt.Library>
libRbt.so (2013.1, Build901 2013/11/27)

>  <Rbt.Parameter_File>
/export/apps/rDock/src/rDock_2013.1_src/data/scripts/dock_solv.prm

>  <Rbt.Receptor>
prm/pocket_docking_8.prm

>  <SCORE>
-28.6273

>  <SCORE.INTER>
-24.275

>  <SCORE.INTER.CONST>
1

>  <SCORE.INTER.POLAR>
0

>  <SCORE.INTER.ROT>
10

>  <SCORE.INTER.SOLV>
10.6556

>  <SCORE.INTER.VDW>
-30.0019

>  <SCORE.INTER.norm>
-0.809165

>  <SCORE.INTRA>
-4.35238

>  <SCORE.INTRA.DIHEDRAL>
-8.78266

>  <SCORE.INTRA.DIHEDRAL.0>
18.0451

>  <SCORE.INTRA.POLAR>
-0.416692

>  <SCORE.INTRA.POLAR.0>
-0.196815

>  <SCORE.INTRA.REPUL>
0

>  <SCORE.INTRA.REPUL.0>
0

>  <SCORE.INTRA.SOLV>
-0.16945

>  <SCORE.INTRA.SOLV.lig_0>
-14.7906

>  <SCORE.INTRA.VDW>
1.54043

>  <SCORE.INTRA.VDW.0>
-0.411701

>  <SCORE.INTRA.norm>
-0.145079

>  <SCORE.RESTR>
0

>  <SCORE.RESTR.CAVITY>
0

>  <SCORE.RESTR.norm>
0

>  <SCORE.SYSTEM>
0

>  <SCORE.SYSTEM.CONST>
0

>  <SCORE.SYSTEM.DIHEDRAL>
0

>  <SCORE.SYSTEM.SOLV>
0

>  <SCORE.SYSTEM.norm>
0

>  <SCORE.heavy>
30

>  <SCORE.norm>
-0.954244

>  <RMSD>
2.259

$$$$
1uts_lig
 OpenBabel11021811413D
libRbt.so/2013.1/901 2013/11/27
 30 33  0  0  0  0  0  0  0  0999 V2000
    4.6350    5.6713   17.8626 N   0  0  0  0  0  0  0  0  0  0  0  0
    4.3679    3.7357   16.3729 C   0  0  0  0  0  0  0  0  0  0  0  0
    0.5759    0.2786   15.7156 C   0  0  0  0  0  0  0  0  0  0  0  0
    2.8946    3.9555   16.0172 C   0  0  0  0  0  0  0  0  0  0  0  0
    2.1883    2.7106   16.1234 O   0  0  0  0  0  0  0  0  0  0  0  0
    5.0544    5.0888   16.5679 C   0  0  0  0  0  0  0  0  0  0  0  0
    1.5620    0.3459   16.8179 N   0  0  0  0  0  0  0  0  0  0  0  0
    2.2723   -0.9551   16.9346 C   0  0  0  0  0  0  0  0  0  0  0  0
    3.4287   -0.8263   17.9304 C   0  0  0  0  0  0  0  0  0  0  0  0
    4.2802   -2.0347   17.8557 N   0  0  0  0  0  0  0  0  0  0  0  0
    3.6418   -3.1357   18.6329 C   0  0  0  0  0  0  0  0  0  0  0  0
    5.6294   -1.7235   18.4068 C   0  0  0  0  0  0  0  0  0  0  0  0
    4.5253   -4.3916   18.5607 C   0  0  0  0  0  0  0  0  0  0  0  0
    6.5139   -2.9815   18.3385 C   0  0  0  0  0  0  0  0  0  0  0  0
    5.8745   -4.0813   19.1130 N   0  0  0  0  0  0  0  0  0  0  0  0
   -0.9567    4.2676   14.7391 C   0  0  0  0  0  0  0  0  0  0  0  0
   -6.9989    3.7101   12.5612 N   0  0  0  0  0  0  0  0  0  0  0  0
   -1.7568    3.1226   14.5114 C   0  0  0  0  0  0  0  0  0  0  0  0
   -1.2539    1.8329   14.8296 C   0  0  0  0  0  0  0  0  0  0  0  0
    0.0496    1.6885   15.3792 C   0  0  0  0  0  0  0  0  0  0  0  0
    0.8609    2.8431   15.5928 C   0  0  0  0  0  0  0  0  0  0  0  0
    0.3510    4.1319   15.2752 C   0  0  0  0  0  0  0  0  0  0  0  0
   -7.6699    3.3573   13.7541 C   0  0  0  0  0  0  0  0  0  0  0  0
   -6.7482    3.0281   14.7738 C   0  0  0  0  0  0  0  0  0  0  0  0
   -4.1862    3.0155   14.7689 C   0  0  0  0  0  0  0  0  0  0  0  0
   -3.0404    3.2726   13.9679 C   0  0  0  0  0  0  0  0  0  0  0  0
   -3.1986    3.6889   12.6173 C   0  0  0  0  0  0  0  0  0  0  0  0
   -4.5004    3.8495   12.0704 C   0  0  0  0  0  0  0  0  0  0  0  0
   -5.6512    3.6035   12.8829 C   0  0  0  0  0  0  0  0  0  0  0  0
   -5.4966    3.1911   14.2191 C   0  0  0  0  0  0  0  0  0  0  0  0
  1  6  1  0  0  0  0
  2  4  1  0  0  0  0
  3  7  1  0  0  0  0
  4  5  1  0  0  0  0
  6  2  1  0  0  0  0
  7  8  1  0  0  0  0
  8  9  1  0  0  0  0
  9 10  1  0  0  0  0
 10 11  1  0  0  0  0
 10 12  1  0  0  0  0
 11 13  1  0  0  0  0
 13 15  1  0  0  0  0
 14 12  1  0  0  0  0
 15 14  1  0  0  0  0
 16 18  2  0  0  0  0
 16 22  1  0  0  0  0
 17 23  1  0  0  0  0
 17 29  1  0  0  0  0
 18 19  1  0  0  0  0
 18 26  1  0  0  0  0
 19 20  2  0  0  0  0
 20  3  1  0  0  0  0
 20 21  1  0  0  0  0
 21  5  1  0  0  0  0
 21 22  2  0  0  0  0
 23 24  2  0  0  0  0
 24 30  1  0  0  0  0
 25 26  2  0  0  0  0
 25 30  1  0  0  0  0
 26 27  1  0  0  0  0
 27 28  2  0  0  0  0
 28 29  1  0  0  0  0
 29 30  2  0  0  0  0
M  END
>  <CHROM.1>
68.01026293,-167.41163029,-167.85374235,-170.83083567,74.53173620,171.75901022
-169.52917794,-79.88514291,-110.56587282,-152.23597284,169.24045291,0.46372314
1.60169694,15.88255330,-0.51327289,-0.32830546,-0.21699813

>  <Name>
1uts_lig

>  <RI>
0

>  <Rbt.Current_Directory>
/home/itssahil/PROJECTS/Mol_Feturizer/New_Systems/rnas/1uts

>  <Rbt.Executable>
rbdock ($Id: //depot/dev/client3/rdock/2013.1/src/exe/rbdock.cxx#4 $)

>  <Rbt.Library>
libRbt.so (2013.1, Build901 2013/11/27)

>  <Rbt.Parameter_File>
/export/apps/rDock/src/rDock_2013.1_src/data/scripts/dock_solv.prm

>  <Rbt.Receptor>
prm/pocket_docking_4.prm

>  <SCORE>
-32.643

>  <SCORE.INTER>
-29.5467

>  <SCORE.INTER.CONST>
1

>  <SCORE.INTER.POLAR>
-1.43393

>  <SCORE.INTER.ROT>
10

>  <SCORE.INTER.SOLV>
11.1101

>  <SCORE.INTER.VDW>
-28.8881

>  <SCORE.INTER.norm>
-0.984889

>  <SCORE.INTRA>
-3.09627

>  <SCORE.INTRA.DIHEDRAL>
-9.19237

>  <SCORE.INTRA.DIHEDRAL.0>
18.0451

>  <SCORE.INTRA.POLAR>
-0.533574

>  <SCORE.INTRA.POLAR.0>
-0.196815

>  <SCORE.INTRA.REPUL>
0

>  <SCORE.INTRA.REPUL.0>
0

>  <SCORE.INTRA.SOLV>
-0.166701

>  <SCORE.INTRA.SOLV.lig_0>
-14.7906

>  <SCORE.INTRA.VDW>
3.39742

>  <SCORE.INTRA.VDW.0>
-0.411701

>  <SCORE.INTRA.norm>
-0.103209

>  <SCORE.RESTR>
0

>  <SCORE.RESTR.CAVITY>
0

>  <SCORE.RESTR.norm>
0

>  <SCORE.SYSTEM>
0

>  <SCORE.SYSTEM.CONST>
0

>  <SCORE.SYSTEM.DIHEDRAL>
0

>  <SCORE.SYSTEM.SOLV>
0

>  <SCORE.SYSTEM.norm>
0

>  <SCORE.heavy>
30

>  <SCORE.norm>
-1.0881

>  <RMSD>
2.294

$$$$
1uts_lig
 OpenBabel11021811413D
libRbt.so/2013.1/901 2013/11/27
 30 33  0  0  0  0  0  0  0  0999 V2000
    5.1051    7.5993   20.1284 N   0  0  0  0  0  0  0  0  0  0  0  0
    3.5414    5.8109   19.5011 C   0  0  0  0  0  0  0  0  0  0  0  0
    2.5260    2.9476   15.8230 C   0  0  0  0  0  0  0  0  0  0  0  0
    2.1930    5.6820   18.7866 C   0  0  0  0  0  0  0  0  0  0  0  0
    1.9998    4.3203   18.3764 O   0  0  0  0  0  0  0  0  0  0  0  0
    3.6757    7.2162   20.0905 C   0  0  0  0  0  0  0  0  0  0  0  0
    2.9527    2.0376   16.9101 N   0  0  0  0  0  0  0  0  0  0  0  0
    2.4452    0.6657   16.6430 C   0  0  0  0  0  0  0  0  0  0  0  0
    2.9465   -0.2922   17.7278 C   0  0  0  0  0  0  0  0  0  0  0  0
    2.5033   -1.6688   17.4124 N   0  0  0  0  0  0  0  0  0  0  0  0
    1.0315   -1.7739   17.6284 C   0  0  0  0  0  0  0  0  0  0  0  0
    3.2276   -2.6337   18.2873 C   0  0  0  0  0  0  0  0  0  0  0  0
    0.5682   -3.2037   17.3055 C   0  0  0  0  0  0  0  0  0  0  0  0
    2.7617   -4.0655   17.9674 C   0  0  0  0  0  0  0  0  0  0  0  0
    1.2913   -4.1690   18.1810 N   0  0  0  0  0  0  0  0  0  0  0  0
   -1.3693    4.7407   16.7319 C   0  0  0  0  0  0  0  0  0  0  0  0
   -5.1400    3.9145   11.5256 N   0  0  0  0  0  0  0  0  0  0  0  0
   -1.1517    4.1057   15.4859 C   0  0  0  0  0  0  0  0  0  0  0  0
    0.1131    3.5271   15.1976 C   0  0  0  0  0  0  0  0  0  0  0  0
    1.1604    3.5810   16.1579 C   0  0  0  0  0  0  0  0  0  0  0  0
    0.9439    4.2361   17.4073 C   0  0  0  0  0  0  0  0  0  0  0  0
   -0.3252    4.8108   17.6916 C   0  0  0  0  0  0  0  0  0  0  0  0
   -4.3051    4.2042   10.4225 C   0  0  0  0  0  0  0  0  0  0  0  0
   -2.9704    4.4102   10.8393 C   0  0  0  0  0  0  0  0  0  0  0  0
   -1.9138    4.3047   13.1709 C   0  0  0  0  0  0  0  0  0  0  0  0
   -2.1886    4.0578   14.5435 C   0  0  0  0  0  0  0  0  0  0  0  0
   -3.5150    3.7555   14.9577 C   0  0  0  0  0  0  0  0  0  0  0  0
   -4.5635    3.6981   14.0002 C   0  0  0  0  0  0  0  0  0  0  0  0
   -4.2813    3.9333   12.6181 C   0  0  0  0  0  0  0  0  0  0  0  0
   -2.9698    4.2331   12.2065 C   0  0  0  0  0  0  0  0  0  0  0  0
  1  6  1  0  0  0  0
  2  4  1  0  0  0  0
  3  7  1  0  0  0  0
  4  5  1  0  0  0  0
  6  2  1  0  0  0  0
  7  8  1  0  0  0  0
  8  9  1  0  0  0  0
  9 10  1  0  0  0  0
 10 11  1  0  0  0  0
 10 12  1  0  0  0  0
 11 13  1  0  0  0  0
 13 15  1  0  0  0  0
 14 12  1  0  0  0  0
 15 14  1  0  0  0  0
 16 18  2  0  0  0  0
 16 22  1  0  0  0  0
 17 23  1  0  0  0  0
 17 29  1  0  0  0  0
 18 19  1  0  0  0  0
 18 26  1  0  0  0  0
 19 20  2  0  0  0  0
 20  3  1  0  0  0  0
 20 21  1  0  0  0  0
 21  5  1  0  0  0  0
 21 22  2  0  0  0  0
 23 24  2  0  0  0  0
 24 30  1  0  0  0  0
 25 26  2  0  0  0  0
 25 30  1  0  0  0  0
 26 27  1  0  0  0  0
 27 28  2  0  0  0  0
 28 29  1  0  0  0  0
 29 30  2  0  0  0  0
M  END
>  <CHROM.1>
-51.58699267,-173.07089340,89.89914092,-164.44038465,-150.38302822,177.06839339
-176.72651497,-71.24067000,137.48063994,-128.99812869,127.23770816,0.36419323
2.59555003,16.25176573,-0.42008964,-0.73932479,0.03491271

>  <Name>
1uts_lig

>  <RI>
0

>  <Rbt.Current_Directory>
/home/itssahil/PROJECTS/Mol_Feturizer/New_Systems/rnas/1uts

>  <Rbt.Executable>
rbdock ($Id: //depot/dev/client3/rdock/2013.1/src/exe/rbdock.cxx#4 $)

>  <Rbt.Library>
libRbt.so (2013.1, Build901 2013/11/27)

>  <Rbt.Parameter_File>
/export/apps/rDock/src/rDock_2013.1_src/data/scripts/dock_solv.prm

>  <Rbt.Receptor>
prm/pocket_docking_4.prm

>  <SCORE>
-36.7598

>  <SCORE.INTER>
-33.3666

>  <SCORE.INTER.CONST>
1

>  <SCORE.INTER.POLAR>
-2.07254

>  <SCORE.INTER.ROT>
10

>  <SCORE.INTER.SOLV>
10.534

>  <SCORE.INTER.VDW>
-29.1139

>  <SCORE.INTER.norm>
-1.11222

>  <SCORE.INTRA>
-3.47207

>  <SCORE.INTRA.DIHEDRAL>
-5.72873

>  <SCORE.INTRA.DIHEDRAL.0>
18.0451

>  <SCORE.INTRA.POLAR>
-0.397283

>  <SCORE.INTRA.POLAR.0>
-0.196815

>  <SCORE.INTRA.REPUL>
0

>  <SCORE.INTRA.REPUL.0>
0

>  <SCORE.INTRA.SOLV>
-0.415186

>  <SCORE.INTRA.SOLV.lig_0>
-14.7906

>  <SCORE.INTRA.VDW>
0.950648

>  <SCORE.INTRA.VDW.0>
-0.411701

>  <SCORE.INTRA.norm>
-0.115736

>  <SCORE.RESTR>
0.0788243

>  <SCORE.RESTR.CAVITY>
0.0788243

>  <SCORE.RESTR.norm>
0.00262748

>  <SCORE.SYSTEM>
0

>  <SCORE.SYSTEM.CONST>
0

>  <SCORE.SYSTEM.DIHEDRAL>
0

>  <SCORE.SYSTEM.SOLV>
0

>  <SCORE.SYSTEM.norm>
0

>  <SCORE.heavy>
30

>  <SCORE.norm>
-1.22533

>  <RMSD>
2.299

$$$$
1uts_lig
 OpenBabel11021811413D
libRbt.so/2013.1/901 2013/11/27
 30 33  0  0  0  0  0  0  0  0999 V2000
    3.3777    6.9247   19.1440 N   0  0  0  0  0  0  0  0  0  0  0  0
    2.4663    4.6429   19.1432 C   0  0  0  0  0  0  0  0  0  0  0  0
    1.6269    0.5946   16.7260 C   0  0  0  0  0  0  0  0  0  0  0  0
    2.7822    3.1802   18.8177 C   0  0  0  0  0  0  0  0  0  0  0  0
    3.0861    3.0582   17.4204 O   0  0  0  0  0  0  0  0  0  0  0  0
    3.6752    5.5157   18.8012 C   0  0  0  0  0  0  0  0  0  0  0  0
    3.1055    0.5206   16.7066 N   0  0  0  0  0  0  0  0  0  0  0  0
    3.5419   -0.8648   17.0246 C   0  0  0  0  0  0  0  0  0  0  0  0
    3.4233   -1.1121   18.5314 C   0  0  0  0  0  0  0  0  0  0  0  0
    3.5841   -2.5574   18.8075 N   0  0  0  0  0  0  0  0  0  0  0  0
    4.9074   -3.0128   18.2924 C   0  0  0  0  0  0  0  0  0  0  0  0
    2.4814   -3.3122   18.1478 C   0  0  0  0  0  0  0  0  0  0  0  0
    5.0764   -4.5146   18.5740 C   0  0  0  0  0  0  0  0  0  0  0  0
    2.6517   -4.8166   18.4260 C   0  0  0  0  0  0  0  0  0  0  0  0
    3.9745   -5.2701   17.9134 N   0  0  0  0  0  0  0  0  0  0  0  0
    0.2492    4.5490   15.4301 C   0  0  0  0  0  0  0  0  0  0  0  0
   -4.9551    3.8805   11.7019 N   0  0  0  0  0  0  0  0  0  0  0  0
   -0.4709    3.3880   15.0600 C   0  0  0  0  0  0  0  0  0  0  0  0
   -0.0187    2.1097   15.4829 C   0  0  0  0  0  0  0  0  0  0  0  0
    1.1534    1.9926   16.2795 C   0  0  0  0  0  0  0  0  0  0  0  0
    1.8871    3.1632   16.6378 C   0  0  0  0  0  0  0  0  0  0  0  0
    1.4279    4.4404   16.2142 C   0  0  0  0  0  0  0  0  0  0  0  0
   -4.2509    4.1706   10.5112 C   0  0  0  0  0  0  0  0  0  0  0  0
   -2.8579    4.2152   10.7462 C   0  0  0  0  0  0  0  0  0  0  0  0
   -1.5133    3.8332   12.8933 C   0  0  0  0  0  0  0  0  0  0  0  0
   -1.6247    3.5113   14.2733 C   0  0  0  0  0  0  0  0  0  0  0  0
   -2.9075    3.3078   14.8523 C   0  0  0  0  0  0  0  0  0  0  0  0
   -4.0759    3.4240   14.0517 C   0  0  0  0  0  0  0  0  0  0  0  0
   -3.9597    3.7342   12.6605 C   0  0  0  0  0  0  0  0  0  0  0  0
   -2.6914    3.9364   12.0861 C   0  0  0  0  0  0  0  0  0  0  0  0
  1  6  1  0  0  0  0
  2  4  1  0  0  0  0
  3  7  1  0  0  0  0
  4  5  1  0  0  0  0
  6  2  1  0  0  0  0
  7  8  1  0  0  0  0
  8  9  1  0  0  0  0
  9 10  1  0  0  0  0
 10 11  1  0  0  0  0
 10 12  1  0  0  0  0
 11 13  1  0  0  0  0
 13 15  1  0  0  0  0
 14 12  1  0  0  0  0
 15 14  1  0  0  0  0
 16 18  2  0  0  0  0
 16 22  1  0  0  0  0
 17 23  1  0  0  0  0
 17 29  1  0  0  0  0
 18 19  1  0  0  0  0
 18 26  1  0  0  0  0
 19 20  2  0  0  0  0
 20  3  1  0  0  0  0
 20 21  1  0  0  0  0
 21  5  1  0  0  0  0
 21 22  2  0  0  0  0
 23 24  2  0  0  0  0
 24 30  1  0  0  0  0
 25 26  2  0  0  0  0
 25 30  1  0  0  0  0
 26 27  1  0  0  0  0
 27 28  2  0  0  0  0
 28 29  1  0  0  0  0
 29 30  2  0  0  0  0
M  END
>  <CHROM.1>
67.24931819,-59.78330474,-175.12018362,-74.14944037,-178.78875395,-77.21692855
168.29908274,58.19110686,73.13206601,142.62025202,-92.07550216,0.98895269
1.67078177,16.17364976,-2.55262723,0.73948793,-3.04129557

>  <Name>
1uts_lig

>  <RI>
0

>  <Rbt.Current_Directory>
/home/itssahil/PROJECTS/Mol_Feturizer/New_Systems/rnas/1uts

>  <Rbt.Executable>
rbdock ($Id: //depot/dev/client3/rdock/2013.1/src/exe/rbdock.cxx#4 $)

>  <Rbt.Library>
libRbt.so (2013.1, Build901 2013/11/27)

>  <Rbt.Parameter_File>
/export/apps/rDock/src/rDock_2013.1_src/data/scripts/dock_solv.prm

>  <Rbt.Receptor>
prm/pocket_docking_4.prm

>  <SCORE>
-24.8981

>  <SCORE.INTER>
-24.861

>  <SCORE.INTER.CONST>
1

>  <SCORE.INTER.POLAR>
-1.05206

>  <SCORE.INTER.ROT>
10

>  <SCORE.INTER.SOLV>
11.7449

>  <SCORE.INTER.VDW>
-27.2488

>  <SCORE.INTER.norm>
-0.8287

>  <SCORE.INTRA>
-0.0371436

>  <SCORE.INTRA.DIHEDRAL>
-5.83125

>  <SCORE.INTRA.DIHEDRAL.0>
18.0451

>  <SCORE.INTRA.POLAR>
-0.142384

>  <SCORE.INTRA.POLAR.0>
-0.196815

>  <SCORE.INTRA.REPUL>
0

>  <SCORE.INTRA.REPUL.0>
0

>  <SCORE.INTRA.SOLV>
-0.115636

>  <SCORE.INTRA.SOLV.lig_0>
-14.7906

>  <SCORE.INTRA.VDW>
3.4204

>  <SCORE.INTRA.VDW.0>
-0.411701

>  <SCORE.INTRA.norm>
-0.00123812

>  <SCORE.RESTR>
0

>  <SCORE.RESTR.CAVITY>
0

>  <SCORE.RESTR.norm>
0

>  <SCORE.SYSTEM>
0

>  <SCORE.SYSTEM.CONST>
0

>  <SCORE.SYSTEM.DIHEDRAL>
0

>  <SCORE.SYSTEM.SOLV>
0

>  <SCORE.SYSTEM.norm>
0

>  <SCORE.heavy>
30

>  <SCORE.norm>
-0.829938

>  <RMSD>
2.310

$$$$
1uts_lig
 OpenBabel11021811413D
libRbt.so/2013.1/901 2013/11/27
 30 33  0  0  0  0  0  0  0  0999 V2000
    3.5469    6.4557   18.9753 N   0  0  0  0  0  0  0  0  0  0  0  0
    2.7876    4.2197   18.2963 C   0  0  0  0  0  0  0  0  0  0  0  0
    1.3652    0.4396   16.2076 C   0  0  0  0  0  0  0  0  0  0  0  0
    3.4848    4.0689   16.9411 C   0  0  0  0  0  0  0  0  0  0  0  0
    3.0664    2.8424   16.3243 O   0  0  0  0  0  0  0  0  0  0  0  0
    3.6876    5.0078   19.2497 C   0  0  0  0  0  0  0  0  0  0  0  0
    2.1970    0.5655   17.4260 N   0  0  0  0  0  0  0  0  0  0  0  0
    2.7196   -0.7708   17.8159 C   0  0  0  0  0  0  0  0  0  0  0  0
    1.5610   -1.6737   18.2493 C   0  0  0  0  0  0  0  0  0  0  0  0
    2.0889   -2.8046   19.0451 N   0  0  0  0  0  0  0  0  0  0  0  0
    2.6366   -3.8416   18.1239 C   0  0  0  0  0  0  0  0  0  0  0  0
    0.9937   -3.3758   19.8789 C   0  0  0  0  0  0  0  0  0  0  0  0
    3.1824   -5.0197   18.9469 C   0  0  0  0  0  0  0  0  0  0  0  0
    1.5382   -4.5581   20.7007 C   0  0  0  0  0  0  0  0  0  0  0  0
    2.0872   -5.5922   19.7801 N   0  0  0  0  0  0  0  0  0  0  0  0
   -0.0703    4.3637   14.8827 C   0  0  0  0  0  0  0  0  0  0  0  0
   -6.1959    3.7834   12.9452 N   0  0  0  0  0  0  0  0  0  0  0  0
   -0.9133    3.2303   14.7934 C   0  0  0  0  0  0  0  0  0  0  0  0
   -0.4417    1.9616   15.2240 C   0  0  0  0  0  0  0  0  0  0  0  0
    0.8734    1.8269   15.7475 C   0  0  0  0  0  0  0  0  0  0  0  0
    1.7275    2.9681   15.8215 C   0  0  0  0  0  0  0  0  0  0  0  0
    1.2489    4.2361   15.3918 C   0  0  0  0  0  0  0  0  0  0  0  0
   -6.8412    3.4559   14.1594 C   0  0  0  0  0  0  0  0  0  0  0  0
   -5.8979    3.1467   15.1654 C   0  0  0  0  0  0  0  0  0  0  0  0
   -3.3366    3.1312   15.1054 C   0  0  0  0  0  0  0  0  0  0  0  0
   -2.2083    3.3706   14.2748 C   0  0  0  0  0  0  0  0  0  0  0  0
   -2.3954    3.7592   12.9197 C   0  0  0  0  0  0  0  0  0  0  0  0
   -3.7086    3.9100   12.3978 C   0  0  0  0  0  0  0  0  0  0  0  0
   -4.8417    3.6820   13.2399 C   0  0  0  0  0  0  0  0  0  0  0  0
   -4.6585    3.2969   14.5806 C   0  0  0  0  0  0  0  0  0  0  0  0
  1  6  1  0  0  0  0
  2  4  1  0  0  0  0
  3  7  1  0  0  0  0
  4  5  1  0  0  0  0
  6  2  1  0  0  0  0
  7  8  1  0  0  0  0
  8  9  1  0  0  0  0
  9 10  1  0  0  0  0
 10 11  1  0  0  0  0
 10 12  1  0  0  0  0
 11 13  1  0  0  0  0
 13 15  1  0  0  0  0
 14 12  1  0  0  0  0
 15 14  1  0  0  0  0
 16 18  2  0  0  0  0
 16 22  1  0  0  0  0
 17 23  1  0  0  0  0
 17 29  1  0  0  0  0
 18 19  1  0  0  0  0
 18 26  1  0  0  0  0
 19 20  2  0  0  0  0
 20  3  1  0  0  0  0
 20 21  1  0  0  0  0
 21  5  1  0  0  0  0
 21 22  2  0  0  0  0
 23 24  2  0  0  0  0
 24 30  1  0  0  0  0
 25 26  2  0  0  0  0
 25 30  1  0  0  0  0
 26 27  1  0  0  0  0
 27 28  2  0  0  0  0
 28 29  1  0  0  0  0
 29 30  2  0  0  0  0
M  END
>  <CHROM.1>
-81.16917563,149.84316753,-177.12290099,74.35088791,81.22263647,-66.30110402
-161.27159256,-80.12720420,-115.47961799,-141.99673176,-150.53109783,0.12886403
1.45446046,16.54662221,-0.83844633,-0.45535857,-0.27792870

>  <Name>
1uts_lig

>  <RI>
0

>  <Rbt.Current_Directory>
/home/itssahil/PROJECTS/Mol_Feturizer/New_Systems/rnas/1uts

>  <Rbt.Executable>
rbdock ($Id: //depot/dev/client3/rdock/2013.1/src/exe/rbdock.cxx#4 $)

>  <Rbt.Library>
libRbt.so (2013.1, Build901 2013/11/27)

>  <Rbt.Parameter_File>
/export/apps/rDock/src/rDock_2013.1_src/data/scripts/dock_solv.prm

>  <Rbt.Receptor>
prm/pocket_docking_4.prm

>  <SCORE>
-27.1578

>  <SCORE.INTER>
-26.8867

>  <SCORE.INTER.CONST>
1

>  <SCORE.INTER.POLAR>
-1.25607

>  <SCORE.INTER.ROT>
10

>  <SCORE.INTER.SOLV>
10.32

>  <SCORE.INTER.VDW>
-27.4442

>  <SCORE.INTER.norm>
-0.896224

>  <SCORE.INTRA>
-0.271101

>  <SCORE.INTRA.DIHEDRAL>
-3.65661

>  <SCORE.INTRA.DIHEDRAL.0>
18.0451

>  <SCORE.INTRA.POLAR>
-0.427831

>  <SCORE.INTRA.POLAR.0>
-0.196815

>  <SCORE.INTRA.REPUL>
0

>  <SCORE.INTRA.REPUL.0>
0

>  <SCORE.INTRA.SOLV>
-0.206125

>  <SCORE.INTRA.SOLV.lig_0>
-14.7906

>  <SCORE.INTRA.VDW>
3.11489

>  <SCORE.INTRA.VDW.0>
-0.411701

>  <SCORE.INTRA.norm>
-0.00903669

>  <SCORE.RESTR>
0

>  <SCORE.RESTR.CAVITY>
0

>  <SCORE.RESTR.norm>
0

>  <SCORE.SYSTEM>
0

>  <SCORE.SYSTEM.CONST>
0

>  <SCORE.SYSTEM.DIHEDRAL>
0

>  <SCORE.SYSTEM.SOLV>
0

>  <SCORE.SYSTEM.norm>
0

>  <SCORE.heavy>
30

>  <SCORE.norm>
-0.905261

>  <RMSD>
2.333

$$$$
1uts_lig
 OpenBabel11021811413D
libRbt.so/2013.1/901 2013/11/27
 30 33  0  0  0  0  0  0  0  0999 V2000
    5.2601    5.5394   16.6608 N   0  0  0  0  0  0  0  0  0  0  0  0
    4.8934    3.1101   16.6993 C   0  0  0  0  0  0  0  0  0  0  0  0
    1.0661    0.4471   16.0627 C   0  0  0  0  0  0  0  0  0  0  0  0
    3.5608    3.1878   15.9487 C   0  0  0  0  0  0  0  0  0  0  0  0
    2.4858    2.9039   16.8562 O   0  0  0  0  0  0  0  0  0  0  0  0
    5.0762    4.3692   17.5487 C   0  0  0  0  0  0  0  0  0  0  0  0
    1.6837    0.3952   17.4073 N   0  0  0  0  0  0  0  0  0  0  0  0
    2.5899   -0.7802   17.4973 C   0  0  0  0  0  0  0  0  0  0  0  0
    3.9395   -0.4438   16.8563 C   0  0  0  0  0  0  0  0  0  0  0  0
    4.9925   -0.4435   17.8967 N   0  0  0  0  0  0  0  0  0  0  0  0
    4.7729    0.7075   18.8191 C   0  0  0  0  0  0  0  0  0  0  0  0
    6.3295   -0.3413   17.2465 C   0  0  0  0  0  0  0  0  0  0  0  0
    5.8671    0.7132   19.8989 C   0  0  0  0  0  0  0  0  0  0  0  0
    7.4258   -0.3316   18.3270 C   0  0  0  0  0  0  0  0  0  0  0  0
    7.2045    0.8168   19.2493 N   0  0  0  0  0  0  0  0  0  0  0  0
   -0.5623    4.4336   15.2436 C   0  0  0  0  0  0  0  0  0  0  0  0
   -6.2764    3.8370   12.3350 N   0  0  0  0  0  0  0  0  0  0  0  0
   -1.2673    3.2782   14.8298 C   0  0  0  0  0  0  0  0  0  0  0  0
   -0.7338    1.9894   15.0980 C   0  0  0  0  0  0  0  0  0  0  0  0
    0.5048    1.8560   15.7836 C   0  0  0  0  0  0  0  0  0  0  0  0
    1.2220    3.0227   16.1855 C   0  0  0  0  0  0  0  0  0  0  0  0
    0.6815    4.3101   15.9171 C   0  0  0  0  0  0  0  0  0  0  0  0
   -7.0698    3.5610   13.4717 C   0  0  0  0  0  0  0  0  0  0  0  0
   -6.2609    3.2746   14.5949 C   0  0  0  0  0  0  0  0  0  0  0  0
   -3.7119    3.2226   14.8477 C   0  0  0  0  0  0  0  0  0  0  0  0
   -2.4872    3.4176   14.1531 C   0  0  0  0  0  0  0  0  0  0  0  0
   -2.5018    3.7609   12.7732 C   0  0  0  0  0  0  0  0  0  0  0  0
   -3.7392    3.9110   12.0906 C   0  0  0  0  0  0  0  0  0  0  0  0
   -4.9698    3.7278   12.7956 C   0  0  0  0  0  0  0  0  0  0  0  0
   -4.9574    3.3875   14.1606 C   0  0  0  0  0  0  0  0  0  0  0  0
  1  6  1  0  0  0  0
  2  4  1  0  0  0  0
  3  7  1  0  0  0  0
  4  5  1  0  0  0  0
  6  2  1  0  0  0  0
  7  8  1  0  0  0  0
  8  9  1  0  0  0  0
  9 10  1  0  0  0  0
 10 11  1  0  0  0  0
 10 12  1  0  0  0  0
 11 13  1  0  0  0  0
 13 15  1  0  0  0  0
 14 12  1  0  0  0  0
 15 14  1  0  0  0  0
 16 18  2  0  0  0  0
 16 22  1  0  0  0  0
 17 23  1  0  0  0  0
 17 29  1  0  0  0  0
 18 19  1  0  0  0  0
 18 26  1  0  0  0  0
 19 20  2  0  0  0  0
 20  3  1  0  0  0  0
 20 21  1  0  0  0  0
 21  5  1  0  0  0  0
 21 22  2  0  0  0  0
 23 24  2  0  0  0  0
 24 30  1  0  0  0  0
 25 26  2  0  0  0  0
 25 30  1  0  0  0  0
 26 27  1  0  0  0  0
 27 28  2  0  0  0  0
 28 29  1  0  0  0  0
 29 30  2  0  0  0  0
M  END
>  <CHROM.1>
-179.28423158,-76.35912363,-161.64710845,177.73958597,-67.70425174,81.30020478
114.17054493,-68.31215539,-101.60698490,-140.87065785,103.15782005,1.06090417
2.32578380,16.00773482,-0.32982630,-0.34149660,-0.28492167

>  <Name>
1uts_lig

>  <RI>
0

>  <Rbt.Current_Directory>
/home/itssahil/PROJECTS/Mol_Feturizer/New_Systems/rnas/1uts

>  <Rbt.Executable>
rbdock ($Id: //depot/dev/client3/rdock/2013.1/src/exe/rbdock.cxx#4 $)

>  <Rbt.Library>
libRbt.so (2013.1, Build901 2013/11/27)

>  <Rbt.Parameter_File>
/export/apps/rDock/src/rDock_2013.1_src/data/scripts/dock_solv.prm

>  <Rbt.Receptor>
prm/pocket_docking_5.prm

>  <SCORE>
-25.4903

>  <SCORE.INTER>
-22.3812

>  <SCORE.INTER.CONST>
1

>  <SCORE.INTER.POLAR>
-0.632456

>  <SCORE.INTER.ROT>
10

>  <SCORE.INTER.SOLV>
10.4662

>  <SCORE.INTER.VDW>
-26.568

>  <SCORE.INTER.norm>
-0.746041

>  <SCORE.INTRA>
-3.10904

>  <SCORE.INTRA.DIHEDRAL>
0.400049

>  <SCORE.INTRA.DIHEDRAL.0>
18.0451

>  <SCORE.INTRA.POLAR>
-0.618214

>  <SCORE.INTRA.POLAR.0>
-0.196815

>  <SCORE.INTRA.REPUL>
0

>  <SCORE.INTRA.REPUL.0>
0

>  <SCORE.INTRA.SOLV>
0.280874

>  <SCORE.INTRA.SOLV.lig_0>
-14.7906

>  <SCORE.INTRA.VDW>
-1.34757

>  <SCORE.INTRA.VDW.0>
-0.411701

>  <SCORE.INTRA.norm>
-0.103635

>  <SCORE.RESTR>
0

>  <SCORE.RESTR.CAVITY>
0

>  <SCORE.RESTR.norm>
0

>  <SCORE.SYSTEM>
0

>  <SCORE.SYSTEM.CONST>
0

>  <SCORE.SYSTEM.DIHEDRAL>
0

>  <SCORE.SYSTEM.SOLV>
0

>  <SCORE.SYSTEM.norm>
0

>  <SCORE.heavy>
30

>  <SCORE.norm>
-0.849675

>  <RMSD>
2.334

$$$$
1uts_lig
 OpenBabel11021811413D
libRbt.so/2013.1/901 2013/11/27
 30 33  0  0  0  0  0  0  0  0999 V2000
    4.0024    7.0594   19.4640 N   0  0  0  0  0  0  0  0  0  0  0  0
    3.4864    4.6584   19.5440 C   0  0  0  0  0  0  0  0  0  0  0  0
    2.0894    2.1461   16.1606 C   0  0  0  0  0  0  0  0  0  0  0  0
    2.5151    4.7022   18.3608 C   0  0  0  0  0  0  0  0  0  0  0  0
    1.4737    3.7357   18.5638 O   0  0  0  0  0  0  0  0  0  0  0  0
    4.5850    5.7039   19.3430 C   0  0  0  0  0  0  0  0  0  0  0  0
    1.7454    0.7061   16.1750 N   0  0  0  0  0  0  0  0  0  0  0  0
    1.0882    0.3610   17.4634 C   0  0  0  0  0  0  0  0  0  0  0  0
    0.7293   -1.1278   17.4793 C   0  0  0  0  0  0  0  0  0  0  0  0
    1.8510   -1.8987   18.0610 N   0  0  0  0  0  0  0  0  0  0  0  0
    1.6235   -3.3534   17.8246 C   0  0  0  0  0  0  0  0  0  0  0  0
    1.9393   -1.6167   19.5217 C   0  0  0  0  0  0  0  0  0  0  0  0
    2.7848   -4.1577   18.4309 C   0  0  0  0  0  0  0  0  0  0  0  0
    3.0996   -2.4245   20.1306 C   0  0  0  0  0  0  0  0  0  0  0  0
    2.8729   -3.8770   19.8920 N   0  0  0  0  0  0  0  0  0  0  0  0
   -1.5453    4.5774   16.4640 C   0  0  0  0  0  0  0  0  0  0  0  0
   -4.7049    4.0659   10.8316 N   0  0  0  0  0  0  0  0  0  0  0  0
   -1.2774    3.8422   15.2847 C   0  0  0  0  0  0  0  0  0  0  0  0
   -0.0975    3.0567   15.1928 C   0  0  0  0  0  0  0  0  0  0  0  0
    0.8139    3.0041   16.2829 C   0  0  0  0  0  0  0  0  0  0  0  0
    0.5500    3.7592   17.4649 C   0  0  0  0  0  0  0  0  0  0  0  0
   -0.6342    4.5413   17.5524 C   0  0  0  0  0  0  0  0  0  0  0  0
   -3.7106    4.3131    9.8578 C   0  0  0  0  0  0  0  0  0  0  0  0
   -2.4316    4.4010   10.4528 C   0  0  0  0  0  0  0  0  0  0  0  0
   -1.7065    4.1561   12.8979 C   0  0  0  0  0  0  0  0  0  0  0  0
   -2.1800    3.9001   14.2134 C   0  0  0  0  0  0  0  0  0  0  0  0
   -3.5691    3.6961   14.4397 C   0  0  0  0  0  0  0  0  0  0  0  0
   -4.4818    3.7460   13.3516 C   0  0  0  0  0  0  0  0  0  0  0  0
   -4.0007    3.9899   12.0272 C   0  0  0  0  0  0  0  0  0  0  0  0
   -2.6269    4.1925   11.8015 C   0  0  0  0  0  0  0  0  0  0  0  0
  1  6  1  0  0  0  0
  2  4  1  0  0  0  0
  3  7  1  0  0  0  0
  4  5  1  0  0  0  0
  6  2  1  0  0  0  0
  7  8  1  0  0  0  0
  8  9  1  0  0  0  0
  9 10  1  0  0  0  0
 10 11  1  0  0  0  0
 10 12  1  0  0  0  0
 11 13  1  0  0  0  0
 13 15  1  0  0  0  0
 14 12  1  0  0  0  0
 15 14  1  0  0  0  0
 16 18  2  0  0  0  0
 16 22  1  0  0  0  0
 17 23  1  0  0  0  0
 17 29  1  0  0  0  0
 18 19  1  0  0  0  0
 18 26  1  0  0  0  0
 19 20  2  0  0  0  0
 20  3  1  0  0  0  0
 20 21  1  0  0  0  0
 21  5  1  0  0  0  0
 21 22  2  0  0  0  0
 23 24  2  0  0  0  0
 24 30  1  0  0  0  0
 25 26  2  0  0  0  0
 25 30  1  0  0  0  0
 26 27  1  0  0  0  0
 27 28  2  0  0  0  0
 28 29  1  0  0  0  0
 29 30  2  0  0  0  0
M  END
>  <CHROM.1>
-37.01586816,-179.04347017,-61.40391283,179.99856667,68.63958821,179.90122163
90.89776570,-168.58742990,130.97813149,-70.25212865,84.96259552,0.28410978
2.24818334,16.29018528,-0.56515515,-0.83135694,-0.06238596

>  <Name>
1uts_lig

>  <RI>
0

>  <Rbt.Current_Directory>
/home/itssahil/PROJECTS/Mol_Feturizer/New_Systems/rnas/1uts

>  <Rbt.Executable>
rbdock ($Id: //depot/dev/client3/rdock/2013.1/src/exe/rbdock.cxx#4 $)

>  <Rbt.Library>
libRbt.so (2013.1, Build901 2013/11/27)

>  <Rbt.Parameter_File>
/export/apps/rDock/src/rDock_2013.1_src/data/scripts/dock_solv.prm

>  <Rbt.Receptor>
prm/pocket_docking_3.prm

>  <SCORE>
-23.4967

>  <SCORE.INTER>
-21.9005

>  <SCORE.INTER.CONST>
1

>  <SCORE.INTER.POLAR>
-0.624357

>  <SCORE.INTER.ROT>
10

>  <SCORE.INTER.SOLV>
9.63169

>  <SCORE.INTER.VDW>
-25.9964

>  <SCORE.INTER.norm>
-0.730017

>  <SCORE.INTRA>
-1.59622

>  <SCORE.INTRA.DIHEDRAL>
-5.21695

>  <SCORE.INTRA.DIHEDRAL.0>
18.0451

>  <SCORE.INTRA.POLAR>
0.196815

>  <SCORE.INTRA.POLAR.0>
-0.196815

>  <SCORE.INTRA.REPUL>
0

>  <SCORE.INTRA.REPUL.0>
0

>  <SCORE.INTRA.SOLV>
-0.322124

>  <SCORE.INTRA.SOLV.lig_0>
-14.7906

>  <SCORE.INTRA.VDW>
0.504148

>  <SCORE.INTRA.VDW.0>
-0.411701

>  <SCORE.INTRA.norm>
-0.0532073

>  <SCORE.RESTR>
0

>  <SCORE.RESTR.CAVITY>
0

>  <SCORE.RESTR.norm>
0

>  <SCORE.SYSTEM>
0

>  <SCORE.SYSTEM.CONST>
0

>  <SCORE.SYSTEM.DIHEDRAL>
0

>  <SCORE.SYSTEM.SOLV>
0

>  <SCORE.SYSTEM.norm>
0

>  <SCORE.heavy>
30

>  <SCORE.norm>
-0.783224

>  <RMSD>
2.338

$$$$
1uts_lig
 OpenBabel11021811413D
libRbt.so/2013.1/901 2013/11/27
 30 33  0  0  0  0  0  0  0  0999 V2000
    3.3844    1.7280   20.9522 N   0  0  0  0  0  0  0  0  0  0  0  0
    3.0344    4.1197   20.5116 C   0  0  0  0  0  0  0  0  0  0  0  0
    2.8044    3.8610   15.9377 C   0  0  0  0  0  0  0  0  0  0  0  0
    1.8967    3.9582   19.4992 C   0  0  0  0  0  0  0  0  0  0  0  0
    1.9760    5.0069   18.5226 O   0  0  0  0  0  0  0  0  0  0  0  0
    2.9498    3.0070   21.5579 C   0  0  0  0  0  0  0  0  0  0  0  0
    3.7436    4.7515   16.6566 N   0  0  0  0  0  0  0  0  0  0  0  0
    5.0087    4.0227   16.9382 C   0  0  0  0  0  0  0  0  0  0  0  0
    4.7449    2.8959   17.9413 C   0  0  0  0  0  0  0  0  0  0  0  0
    4.5071    1.6311   17.2101 N   0  0  0  0  0  0  0  0  0  0  0  0
    3.0951    1.1994   17.4193 C   0  0  0  0  0  0  0  0  0  0  0  0
    5.4488    0.5885   17.7070 C   0  0  0  0  0  0  0  0  0  0  0  0
    2.8454   -0.1162   16.6644 C   0  0  0  0  0  0  0  0  0  0  0  0
    5.1972   -0.7305   16.9543 C   0  0  0  0  0  0  0  0  0  0  0  0
    3.7861   -1.1597   17.1618 N   0  0  0  0  0  0  0  0  0  0  0  0
   -1.3507    5.0012   16.7436 C   0  0  0  0  0  0  0  0  0  0  0  0
   -4.7406    3.8547   11.3366 N   0  0  0  0  0  0  0  0  0  0  0  0
   -0.9904    4.4705   15.4820 C   0  0  0  0  0  0  0  0  0  0  0  0
    0.3579    4.1035   15.2272 C   0  0  0  0  0  0  0  0  0  0  0  0
    1.3464    4.2645   16.2366 C   0  0  0  0  0  0  0  0  0  0  0  0
    0.9840    4.8151   17.5026 C   0  0  0  0  0  0  0  0  0  0  0  0
   -0.3678    5.1778   17.7529 C   0  0  0  0  0  0  0  0  0  0  0  0
   -3.8667    4.1480   10.2651 C   0  0  0  0  0  0  0  0  0  0  0  0
   -2.5714    4.4559   10.7394 C   0  0  0  0  0  0  0  0  0  0  0  0
   -1.6374    4.5195   13.1243 C   0  0  0  0  0  0  0  0  0  0  0  0
   -1.9702    4.3160   14.4912 C   0  0  0  0  0  0  0  0  0  0  0  0
   -3.2962    3.9490   14.8509 C   0  0  0  0  0  0  0  0  0  0  0  0
   -4.2862    3.7837   13.8448 C   0  0  0  0  0  0  0  0  0  0  0  0
   -3.9448    3.9755   12.4694 C   0  0  0  0  0  0  0  0  0  0  0  0
   -2.6337    4.3392   12.1117 C   0  0  0  0  0  0  0  0  0  0  0  0
  1  6  1  0  0  0  0
  2  4  1  0  0  0  0
  3  7  1  0  0  0  0
  4  5  1  0  0  0  0
  6  2  1  0  0  0  0
  7  8  1  0  0  0  0
  8  9  1  0  0  0  0
  9 10  1  0  0  0  0
 10 11  1  0  0  0  0
 10 12  1  0  0  0  0
 11 13  1  0  0  0  0
 13 15  1  0  0  0  0
 14 12  1  0  0  0  0
 15 14  1  0  0  0  0
 16 18  2  0  0  0  0
 16 22  1  0  0  0  0
 17 23  1  0  0  0  0
 17 29  1  0  0  0  0
 18 19  1  0  0  0  0
 18 26  1  0  0  0  0
 19 20  2  0  0  0  0
 20  3  1  0  0  0  0
 20 21  1  0  0  0  0
 21  5  1  0  0  0  0
 21 22  2  0  0  0  0
 23 24  2  0  0  0  0
 24 30  1  0  0  0  0
 25 26  2  0  0  0  0
 25 30  1  0  0  0  0
 26 27  1  0  0  0  0
 27 28  2  0  0  0  0
 28 29  1  0  0  0  0
 29 30  2  0  0  0  0
M  END
>  <CHROM.1>
-63.11655299,179.76347899,151.91280970,175.42437498,73.35270957,-66.89934954
94.91548647,-113.72253771,144.91826302,146.72451857,-101.39571130,1.01205608
3.25658769,16.25262713,0.37202020,-0.64264740,0.93367712

>  <Name>
1uts_lig

>  <RI>
0

>  <Rbt.Current_Directory>
/home/itssahil/PROJECTS/Mol_Feturizer/New_Systems/rnas/1uts

>  <Rbt.Executable>
rbdock ($Id: //depot/dev/client3/rdock/2013.1/src/exe/rbdock.cxx#4 $)

>  <Rbt.Library>
libRbt.so (2013.1, Build901 2013/11/27)

>  <Rbt.Parameter_File>
/export/apps/rDock/src/rDock_2013.1_src/data/scripts/dock_solv.prm

>  <Rbt.Receptor>
prm/pocket_docking_3.prm

>  <SCORE>
-28.7277

>  <SCORE.INTER>
-25.8613

>  <SCORE.INTER.CONST>
1

>  <SCORE.INTER.POLAR>
-0.793577

>  <SCORE.INTER.ROT>
10

>  <SCORE.INTER.SOLV>
10.4318

>  <SCORE.INTER.VDW>
-28.3396

>  <SCORE.INTER.norm>
-0.862044

>  <SCORE.INTRA>
-2.86639

>  <SCORE.INTRA.DIHEDRAL>
-1.63786

>  <SCORE.INTRA.DIHEDRAL.0>
18.0451

>  <SCORE.INTRA.POLAR>
-0.732408

>  <SCORE.INTRA.POLAR.0>
-0.196815

>  <SCORE.INTRA.REPUL>
0

>  <SCORE.INTRA.REPUL.0>
0

>  <SCORE.INTRA.SOLV>
0.613224

>  <SCORE.INTRA.SOLV.lig_0>
-14.7906

>  <SCORE.INTRA.VDW>
0.136112

>  <SCORE.INTRA.VDW.0>
-0.411701

>  <SCORE.INTRA.norm>
-0.0955464

>  <SCORE.RESTR>
0

>  <SCORE.RESTR.CAVITY>
0

>  <SCORE.RESTR.norm>
0

>  <SCORE.SYSTEM>
0

>  <SCORE.SYSTEM.CONST>
0

>  <SCORE.SYSTEM.DIHEDRAL>
0

>  <SCORE.SYSTEM.SOLV>
0

>  <SCORE.SYSTEM.norm>
0

>  <SCORE.heavy>
30

>  <SCORE.norm>
-0.95759

>  <RMSD>
2.390

$$$$
1uts_lig
 OpenBabel11021811413D
libRbt.so/2013.1/901 2013/11/27
 30 33  0  0  0  0  0  0  0  0999 V2000
    6.1525    3.3626   20.6929 N   0  0  0  0  0  0  0  0  0  0  0  0
    4.7403    2.7665   18.7726 C   0  0  0  0  0  0  0  0  0  0  0  0
    1.4417    0.0533   16.6220 C   0  0  0  0  0  0  0  0  0  0  0  0
    3.3775    3.0012   18.1147 C   0  0  0  0  0  0  0  0  0  0  0  0
    3.3276    2.3044   16.8610 O   0  0  0  0  0  0  0  0  0  0  0  0
    4.8103    3.5360   20.0929 C   0  0  0  0  0  0  0  0  0  0  0  0
    2.8798   -0.2541   16.4503 N   0  0  0  0  0  0  0  0  0  0  0  0
    3.4197   -0.8418   17.7049 C   0  0  0  0  0  0  0  0  0  0  0  0
    4.9199   -1.1075   17.5487 C   0  0  0  0  0  0  0  0  0  0  0  0
    5.4633   -1.6280   18.8233 N   0  0  0  0  0  0  0  0  0  0  0  0
    5.5694   -0.5112   19.8059 C   0  0  0  0  0  0  0  0  0  0  0  0
    6.8024   -2.2344   18.5786 C   0  0  0  0  0  0  0  0  0  0  0  0
    6.1372   -1.0474   21.1300 C   0  0  0  0  0  0  0  0  0  0  0  0
    7.3736   -2.7684   19.9045 C   0  0  0  0  0  0  0  0  0  0  0  0
    7.4771   -1.6530   20.8861 N   0  0  0  0  0  0  0  0  0  0  0  0
    0.5044    4.0396   15.0583 C   0  0  0  0  0  0  0  0  0  0  0  0
   -5.1807    3.9070   12.0575 N   0  0  0  0  0  0  0  0  0  0  0  0
   -0.4218    2.9801   14.9072 C   0  0  0  0  0  0  0  0  0  0  0  0
   -0.1116    1.6907   15.4158 C   0  0  0  0  0  0  0  0  0  0  0  0
    1.1251    1.4615   16.0791 C   0  0  0  0  0  0  0  0  0  0  0  0
    2.0646    2.5272   16.2160 C   0  0  0  0  0  0  0  0  0  0  0  0
    1.7473    3.8166   15.7076 C   0  0  0  0  0  0  0  0  0  0  0  0
   -4.5851    4.1686   10.8027 C   0  0  0  0  0  0  0  0  0  0  0  0
   -3.1761    4.0967   10.8874 C   0  0  0  0  0  0  0  0  0  0  0  0
   -1.6476    3.5581   12.8718 C   0  0  0  0  0  0  0  0  0  0  0  0
   -1.6385    3.2133   14.2507 C   0  0  0  0  0  0  0  0  0  0  0  0
   -2.8651    3.0987   14.9609 C   0  0  0  0  0  0  0  0  0  0  0  0
   -4.0982    3.3263   14.2921 C   0  0  0  0  0  0  0  0  0  0  0  0
   -4.1048    3.6594   12.9014 C   0  0  0  0  0  0  0  0  0  0  0  0
   -2.8922    3.7738   12.1973 C   0  0  0  0  0  0  0  0  0  0  0  0
  1  6  1  0  0  0  0
  2  4  1  0  0  0  0
  3  7  1  0  0  0  0
  4  5  1  0  0  0  0
  6  2  1  0  0  0  0
  7  8  1  0  0  0  0
  8  9  1  0  0  0  0
  9 10  1  0  0  0  0
 10 11  1  0  0  0  0
 10 12  1  0  0  0  0
 11 13  1  0  0  0  0
 13 15  1  0  0  0  0
 14 12  1  0  0  0  0
 15 14  1  0  0  0  0
 16 18  2  0  0  0  0
 16 22  1  0  0  0  0
 17 23  1  0  0  0  0
 17 29  1  0  0  0  0
 18 19  1  0  0  0  0
 18 26  1  0  0  0  0
 19 20  2  0  0  0  0
 20  3  1  0  0  0  0
 20 21  1  0  0  0  0
 21  5  1  0  0  0  0
 21 22  2  0  0  0  0
 23 24  2  0  0  0  0
 24 30  1  0  0  0  0
 25 26  2  0  0  0  0
 25 30  1  0  0  0  0
 26 27  1  0  0  0  0
 27 28  2  0  0  0  0
 28 29  1  0  0  0  0
 29 30  2  0  0  0  0
M  END
>  <CHROM.1>
-58.75730815,178.59996513,134.19276723,-179.12310008,-177.16687784,-177.69941430
177.15497702,-74.54146614,64.81452709,143.10516299,-111.26069973,1.83443784
1.65893485,16.51430361,-0.20640052,-0.68800174,0.22608216

>  <Name>
1uts_lig

>  <RI>
0

>  <Rbt.Current_Directory>
/home/itssahil/PROJECTS/Mol_Feturizer/New_Systems/rnas/1uts

>  <Rbt.Executable>
rbdock ($Id: //depot/dev/client3/rdock/2013.1/src/exe/rbdock.cxx#4 $)

>  <Rbt.Library>
libRbt.so (2013.1, Build901 2013/11/27)

>  <Rbt.Parameter_File>
/export/apps/rDock/src/rDock_2013.1_src/data/scripts/dock_solv.prm

>  <Rbt.Receptor>
prm/pocket_docking_3.prm

>  <SCORE>
-25.2426

>  <SCORE.INTER>
-19.7684

>  <SCORE.INTER.CONST>
1

>  <SCORE.INTER.POLAR>
-0.724274

>  <SCORE.INTER.ROT>
10

>  <SCORE.INTER.SOLV>
9.92577

>  <SCORE.INTER.VDW>
-24.3399

>  <SCORE.INTER.norm>
-0.658946

>  <SCORE.INTRA>
-5.47421

>  <SCORE.INTRA.DIHEDRAL>
-5.48913

>  <SCORE.INTRA.DIHEDRAL.0>
18.0451

>  <SCORE.INTRA.POLAR>
-0.479894

>  <SCORE.INTRA.POLAR.0>
-0.196815

>  <SCORE.INTRA.REPUL>
0

>  <SCORE.INTRA.REPUL.0>
0

>  <SCORE.INTRA.SOLV>
-0.0957419

>  <SCORE.INTRA.SOLV.lig_0>
-14.7906

>  <SCORE.INTRA.VDW>
-1.05013

>  <SCORE.INTRA.VDW.0>
-0.411701

>  <SCORE.INTRA.norm>
-0.182474

>  <SCORE.RESTR>
0

>  <SCORE.RESTR.CAVITY>
0

>  <SCORE.RESTR.norm>
0

>  <SCORE.SYSTEM>
0

>  <SCORE.SYSTEM.CONST>
0

>  <SCORE.SYSTEM.DIHEDRAL>
0

>  <SCORE.SYSTEM.SOLV>
0

>  <SCORE.SYSTEM.norm>
0

>  <SCORE.heavy>
30

>  <SCORE.norm>
-0.841419

>  <RMSD>
2.398

$$$$
1uts_lig
 OpenBabel11021811413D
libRbt.so/2013.1/901 2013/11/27
 30 33  0  0  0  0  0  0  0  0999 V2000
    1.9447    6.0227   19.4055 N   0  0  0  0  0  0  0  0  0  0  0  0
    3.7486    4.5633   18.5971 C   0  0  0  0  0  0  0  0  0  0  0  0
    2.5290    0.5813   16.3813 C   0  0  0  0  0  0  0  0  0  0  0  0
    4.0903    3.1338   18.1668 C   0  0  0  0  0  0  0  0  0  0  0  0
    4.0903    3.0550   16.7338 O   0  0  0  0  0  0  0  0  0  0  0  0
    2.2754    4.6371   19.0026 C   0  0  0  0  0  0  0  0  0  0  0  0
    2.4093    0.3153   17.8328 N   0  0  0  0  0  0  0  0  0  0  0  0
    2.4440   -1.1509   18.0779 C   0  0  0  0  0  0  0  0  0  0  0  0
    2.8417   -1.4237   19.5315 C   0  0  0  0  0  0  0  0  0  0  0  0
    3.7214   -2.6128   19.5866 N   0  0  0  0  0  0  0  0  0  0  0  0
    3.9016   -3.0265   21.0080 C   0  0  0  0  0  0  0  0  0  0  0  0
    5.0375   -2.2829   18.9701 C   0  0  0  0  0  0  0  0  0  0  0  0
    4.8180   -4.2592   21.0695 C   0  0  0  0  0  0  0  0  0  0  0  0
    5.9573   -3.5154   19.0345 C   0  0  0  0  0  0  0  0  0  0  0  0
    6.1349   -3.9294   20.4542 N   0  0  0  0  0  0  0  0  0  0  0  0
    0.8819    4.5228   15.3984 C   0  0  0  0  0  0  0  0  0  0  0  0
   -5.0048    3.7828   12.8879 N   0  0  0  0  0  0  0  0  0  0  0  0
    0.1052    3.3568   15.1975 C   0  0  0  0  0  0  0  0  0  0  0  0
    0.6452    2.0826   15.5176 C   0  0  0  0  0  0  0  0  0  0  0  0
    1.9624    1.9748   16.0423 C   0  0  0  0  0  0  0  0  0  0  0  0
    2.7498    3.1506   16.2287 C   0  0  0  0  0  0  0  0  0  0  0  0
    2.2029    4.4236   15.9094 C   0  0  0  0  0  0  0  0  0  0  0  0
   -4.5802    3.9068   11.5455 C   0  0  0  0  0  0  0  0  0  0  0  0
   -3.1696    3.8887   11.4580 C   0  0  0  0  0  0  0  0  0  0  0  0
   -1.3862    3.6437   13.2810 C   0  0  0  0  0  0  0  0  0  0  0  0
   -1.1922    3.4708   14.6785 C   0  0  0  0  0  0  0  0  0  0  0  0
   -2.3159    3.4067   15.5476 C   0  0  0  0  0  0  0  0  0  0  0  0
   -3.6308    3.5132   15.0191 C   0  0  0  0  0  0  0  0  0  0  0  0
   -3.8232    3.6732   13.6112 C   0  0  0  0  0  0  0  0  0  0  0  0
   -2.7127    3.7374   12.7498 C   0  0  0  0  0  0  0  0  0  0  0  0
  1  6  1  0  0  0  0
  2  4  1  0  0  0  0
  3  7  1  0  0  0  0
  4  5  1  0  0  0  0
  6  2  1  0  0  0  0
  7  8  1  0  0  0  0
  8  9  1  0  0  0  0
  9 10  1  0  0  0  0
 10 11  1  0  0  0  0
 10 12  1  0  0  0  0
 11 13  1  0  0  0  0
 13 15  1  0  0  0  0
 14 12  1  0  0  0  0
 15 14  1  0  0  0  0
 16 18  2  0  0  0  0
 16 22  1  0  0  0  0
 17 23  1  0  0  0  0
 17 29  1  0  0  0  0
 18 19  1  0  0  0  0
 18 26  1  0  0  0  0
 19 20  2  0  0  0  0
 20  3  1  0  0  0  0
 20 21  1  0  0  0  0
 21  5  1  0  0  0  0
 21 22  2  0  0  0  0
 23 24  2  0  0  0  0
 24 30  1  0  0  0  0
 25 26  2  0  0  0  0
 25 30  1  0  0  0  0
 26 27  1  0  0  0  0
 27 28  2  0  0  0  0
 28 29  1  0  0  0  0
 29 30  2  0  0  0  0
M  END
>  <CHROM.1>
62.39789459,100.13315495,158.03808827,-71.06943803,-179.45731514,159.07078862
-142.02999859,-169.61981754,79.86610644,-99.14161635,-89.97894347,1.36253706
1.67343003,16.78040688,-2.52470386,0.66280126,3.07407670

>  <Name>
1uts_lig

>  <RI>
0

>  <Rbt.Current_Directory>
/home/itssahil/PROJECTS/Mol_Feturizer/New_Systems/rnas/1uts

>  <Rbt.Executable>
rbdock ($Id: //depot/dev/client3/rdock/2013.1/src/exe/rbdock.cxx#4 $)

>  <Rbt.Library>
libRbt.so (2013.1, Build901 2013/11/27)

>  <Rbt.Parameter_File>
/export/apps/rDock/src/rDock_2013.1_src/data/scripts/dock_solv.prm

>  <Rbt.Receptor>
prm/pocket_docking_2.prm

>  <SCORE>
-10.2845

>  <SCORE.INTER>
-12.3995

>  <SCORE.INTER.CONST>
1

>  <SCORE.INTER.POLAR>
0

>  <SCORE.INTER.ROT>
10

>  <SCORE.INTER.SOLV>
8.35048

>  <SCORE.INTER.VDW>
-21.3165

>  <SCORE.INTER.norm>
-0.413318

>  <SCORE.INTRA>
1.85611

>  <SCORE.INTRA.DIHEDRAL>
3.02671

>  <SCORE.INTRA.DIHEDRAL.0>
18.0451

>  <SCORE.INTRA.POLAR>
0.196815

>  <SCORE.INTRA.POLAR.0>
-0.196815

>  <SCORE.INTRA.REPUL>
0

>  <SCORE.INTRA.REPUL.0>
0

>  <SCORE.INTRA.SOLV>
-0.266488

>  <SCORE.INTRA.SOLV.lig_0>
-14.7906

>  <SCORE.INTRA.VDW>
-0.193174

>  <SCORE.INTRA.VDW.0>
-0.411701

>  <SCORE.INTRA.norm>
0.0618703

>  <SCORE.RESTR>
0.258946

>  <SCORE.RESTR.CAVITY>
0.258946

>  <SCORE.RESTR.norm>
0.00863154

>  <SCORE.SYSTEM>
0

>  <SCORE.SYSTEM.CONST>
0

>  <SCORE.SYSTEM.DIHEDRAL>
0

>  <SCORE.SYSTEM.SOLV>
0

>  <SCORE.SYSTEM.norm>
0

>  <SCORE.heavy>
30

>  <SCORE.norm>
-0.342816

>  <RMSD>
2.399

$$$$
1uts_lig
 OpenBabel11021811413D
libRbt.so/2013.1/901 2013/11/27
 30 33  0  0  0  0  0  0  0  0999 V2000
    6.5490    3.7413   19.4158 N   0  0  0  0  0  0  0  0  0  0  0  0
    4.8078    2.9430   17.8768 C   0  0  0  0  0  0  0  0  0  0  0  0
    1.1773   -0.0951   16.2072 C   0  0  0  0  0  0  0  0  0  0  0  0
    3.3733    3.1794   17.3957 C   0  0  0  0  0  0  0  0  0  0  0  0
    3.0293    2.1867   16.4180 O   0  0  0  0  0  0  0  0  0  0  0  0
    5.1473    3.9425   18.9841 C   0  0  0  0  0  0  0  0  0  0  0  0
    1.5591   -0.1361   17.6371 N   0  0  0  0  0  0  0  0  0  0  0  0
    2.6380   -1.1392   17.8389 C   0  0  0  0  0  0  0  0  0  0  0  0
    2.0330   -2.5447   17.9025 C   0  0  0  0  0  0  0  0  0  0  0  0
    2.9122   -3.4236   18.7059 N   0  0  0  0  0  0  0  0  0  0  0  0
    4.1245   -3.7685   17.9089 C   0  0  0  0  0  0  0  0  0  0  0  0
    2.1672   -4.6587   19.0805 C   0  0  0  0  0  0  0  0  0  0  0  0
    5.0384   -4.6846   18.7389 C   0  0  0  0  0  0  0  0  0  0  0  0
    3.0826   -5.5785   19.9085 C   0  0  0  0  0  0  0  0  0  0  0  0
    4.2943   -5.9206   19.1127 N   0  0  0  0  0  0  0  0  0  0  0  0
    0.0036    3.9605   15.0287 C   0  0  0  0  0  0  0  0  0  0  0  0
   -6.1389    3.8439   13.0577 N   0  0  0  0  0  0  0  0  0  0  0  0
   -0.9103    2.8881   14.8949 C   0  0  0  0  0  0  0  0  0  0  0  0
   -0.5234    1.5763   15.2783 C   0  0  0  0  0  0  0  0  0  0  0  0
    0.7781    1.3373   15.7989 C   0  0  0  0  0  0  0  0  0  0  0  0
    1.7036    2.4173   15.9177 C   0  0  0  0  0  0  0  0  0  0  0  0
    1.3097    3.7289   15.5352 C   0  0  0  0  0  0  0  0  0  0  0  0
   -6.8114    3.4787   14.2461 C   0  0  0  0  0  0  0  0  0  0  0  0
   -5.8949    3.0569   15.2359 C   0  0  0  0  0  0  0  0  0  0  0  0
   -3.3379    2.9038   15.1880 C   0  0  0  0  0  0  0  0  0  0  0  0
   -2.1912    3.1311   14.3794 C   0  0  0  0  0  0  0  0  0  0  0  0
   -2.3453    3.6118   13.0499 C   0  0  0  0  0  0  0  0  0  0  0  0
   -3.6438    3.8665   12.5317 C   0  0  0  0  0  0  0  0  0  0  0  0
   -4.7948    3.6501   13.3524 C   0  0  0  0  0  0  0  0  0  0  0  0
   -4.6443    3.1740   14.6677 C   0  0  0  0  0  0  0  0  0  0  0  0
  1  6  1  0  0  0  0
  2  4  1  0  0  0  0
  3  7  1  0  0  0  0
  4  5  1  0  0  0  0
  6  2  1  0  0  0  0
  7  8  1  0  0  0  0
  8  9  1  0  0  0  0
  9 10  1  0  0  0  0
 10 11  1  0  0  0  0
 10 12  1  0  0  0  0
 11 13  1  0  0  0  0
 13 15  1  0  0  0  0
 14 12  1  0  0  0  0
 15 14  1  0  0  0  0
 16 18  2  0  0  0  0
 16 22  1  0  0  0  0
 17 23  1  0  0  0  0
 17 29  1  0  0  0  0
 18 19  1  0  0  0  0
 18 26  1  0  0  0  0
 19 20  2  0  0  0  0
 20  3  1  0  0  0  0
 20 21  1  0  0  0  0
 21  5  1  0  0  0  0
 21 22  2  0  0  0  0
 23 24  2  0  0  0  0
 24 30  1  0  0  0  0
 25 26  2  0  0  0  0
 25 30  1  0  0  0  0
 26 27  1  0  0  0  0
 27 28  2  0  0  0  0
 28 29  1  0  0  0  0
 29 30  2  0  0  0  0
M  END
>  <CHROM.1>
-58.65160113,-176.35762558,-146.16557527,-177.97049533,-178.12741609,-80.23693983
-153.28100728,-74.29438627,-116.96578206,-121.23194395,-133.78758243,0.67989677
0.90977903,16.49983900,-0.68322783,-0.38698356,-0.21848592

>  <Name>
1uts_lig

>  <RI>
0

>  <Rbt.Current_Directory>
/home/itssahil/PROJECTS/Mol_Feturizer/New_Systems/rnas/1uts

>  <Rbt.Executable>
rbdock ($Id: //depot/dev/client3/rdock/2013.1/src/exe/rbdock.cxx#4 $)

>  <Rbt.Library>
libRbt.so (2013.1, Build901 2013/11/27)

>  <Rbt.Parameter_File>
/export/apps/rDock/src/rDock_2013.1_src/data/scripts/dock_solv.prm

>  <Rbt.Receptor>
prm/pocket_docking_4.prm

>  <SCORE>
-23.1293

>  <SCORE.INTER>
-21.9497

>  <SCORE.INTER.CONST>
1

>  <SCORE.INTER.POLAR>
-0.772259

>  <SCORE.INTER.ROT>
10

>  <SCORE.INTER.SOLV>
9.43159

>  <SCORE.INTER.VDW>
-25.4695

>  <SCORE.INTER.norm>
-0.731658

>  <SCORE.INTRA>
-1.17955

>  <SCORE.INTRA.DIHEDRAL>
-5.05873

>  <SCORE.INTRA.DIHEDRAL.0>
18.0451

>  <SCORE.INTRA.POLAR>
0.159184

>  <SCORE.INTRA.POLAR.0>
-0.196815

>  <SCORE.INTRA.REPUL>
0

>  <SCORE.INTRA.REPUL.0>
0

>  <SCORE.INTRA.SOLV>
-0.398232

>  <SCORE.INTRA.SOLV.lig_0>
-14.7906

>  <SCORE.INTRA.VDW>
1.00771

>  <SCORE.INTRA.VDW.0>
-0.411701

>  <SCORE.INTRA.norm>
-0.0393183

>  <SCORE.RESTR>
0

>  <SCORE.RESTR.CAVITY>
0

>  <SCORE.RESTR.norm>
0

>  <SCORE.SYSTEM>
0

>  <SCORE.SYSTEM.CONST>
0

>  <SCORE.SYSTEM.DIHEDRAL>
0

>  <SCORE.SYSTEM.SOLV>
0

>  <SCORE.SYSTEM.norm>
0

>  <SCORE.heavy>
30

>  <SCORE.norm>
-0.770977

>  <RMSD>
2.409

$$$$
1uts_lig
 OpenBabel11021811413D
libRbt.so/2013.1/901 2013/11/27
 30 33  0  0  0  0  0  0  0  0999 V2000
    3.5863    4.8006   20.5146 N   0  0  0  0  0  0  0  0  0  0  0  0
    3.1113    7.0969   19.7806 C   0  0  0  0  0  0  0  0  0  0  0  0
    1.5736    4.4171   16.0326 C   0  0  0  0  0  0  0  0  0  0  0  0
    1.7028    6.8048   19.2551 C   0  0  0  0  0  0  0  0  0  0  0  0
    1.6393    5.4479   18.7920 O   0  0  0  0  0  0  0  0  0  0  0  0
    3.4071    6.1944   20.9799 C   0  0  0  0  0  0  0  0  0  0  0  0
    1.6101    3.0058   15.5864 N   0  0  0  0  0  0  0  0  0  0  0  0
    1.6130    2.1061   16.7702 C   0  0  0  0  0  0  0  0  0  0  0  0
    1.4119    0.6564   16.3194 C   0  0  0  0  0  0  0  0  0  0  0  0
    2.0396   -0.2564   17.3011 N   0  0  0  0  0  0  0  0  0  0  0  0
    3.5163   -0.2627   17.0934 C   0  0  0  0  0  0  0  0  0  0  0  0
    1.4839   -1.6281   17.1261 C   0  0  0  0  0  0  0  0  0  0  0  0
    4.1714   -1.2128   18.1090 C   0  0  0  0  0  0  0  0  0  0  0  0
    2.1419   -2.5811   18.1401 C   0  0  0  0  0  0  0  0  0  0  0  0
    3.6169   -2.5851   17.9336 N   0  0  0  0  0  0  0  0  0  0  0  0
   -2.0929    5.1855   18.3087 C   0  0  0  0  0  0  0  0  0  0  0  0
   -7.0844    3.7238   14.4312 N   0  0  0  0  0  0  0  0  0  0  0  0
   -2.1681    4.7071   16.9787 C   0  0  0  0  0  0  0  0  0  0  0  0
   -0.9761    4.4607   16.2466 C   0  0  0  0  0  0  0  0  0  0  0  0
    0.2926    4.6899   16.8465 C   0  0  0  0  0  0  0  0  0  0  0  0
    0.3659    5.1878   18.1821 C   0  0  0  0  0  0  0  0  0  0  0  0
   -0.8306    5.4298   18.9111 C   0  0  0  0  0  0  0  0  0  0  0  0
   -6.5643    3.4569   13.1443 C   0  0  0  0  0  0  0  0  0  0  0  0
   -5.1569    3.5863   13.1314 C   0  0  0  0  0  0  0  0  0  0  0  0
   -3.5160    4.1694   15.0106 C   0  0  0  0  0  0  0  0  0  0  0  0
   -3.4225    4.4848   16.3935 C   0  0  0  0  0  0  0  0  0  0  0  0
   -4.6023    4.5676   17.1830 C   0  0  0  0  0  0  0  0  0  0  0  0
   -5.8726    4.3330   16.5906 C   0  0  0  0  0  0  0  0  0  0  0  0
   -5.9623    4.0021   15.2022 C   0  0  0  0  0  0  0  0  0  0  0  0
   -4.7962    3.9204   14.4194 C   0  0  0  0  0  0  0  0  0  0  0  0
  1  6  1  0  0  0  0
  2  4  1  0  0  0  0
  3  7  1  0  0  0  0
  4  5  1  0  0  0  0
  6  2  1  0  0  0  0
  7  8  1  0  0  0  0
  8  9  1  0  0  0  0
  9 10  1  0  0  0  0
 10 11  1  0  0  0  0
 10 12  1  0  0  0  0
 11 13  1  0  0  0  0
 13 15  1  0  0  0  0
 14 12  1  0  0  0  0
 15 14  1  0  0  0  0
 16 18  2  0  0  0  0
 16 22  1  0  0  0  0
 17 23  1  0  0  0  0
 17 29  1  0  0  0  0
 18 19  1  0  0  0  0
 18 26  1  0  0  0  0
 19 20  2  0  0  0  0
 20  3  1  0  0  0  0
 20 21  1  0  0  0  0
 21  5  1  0  0  0  0
 21 22  2  0  0  0  0
 23 24  2  0  0  0  0
 24 30  1  0  0  0  0
 25 26  2  0  0  0  0
 25 30  1  0  0  0  0
 26 27  1  0  0  0  0
 27 28  2  0  0  0  0
 28 29  1  0  0  0  0
 29 30  2  0  0  0  0
M  END
>  <CHROM.1>
70.94266170,-62.74718517,-60.93109211,-174.70747881,71.14230024,170.47798226
152.82308629,-77.35142365,171.99919995,-58.29646544,124.50736789,-0.34136048
3.18497614,17.08739236,-0.17898283,-0.45550014,0.34074188

>  <Name>
1uts_lig

>  <RI>
0

>  <Rbt.Current_Directory>
/home/itssahil/PROJECTS/Mol_Feturizer/New_Systems/rnas/1uts

>  <Rbt.Executable>
rbdock ($Id: //depot/dev/client3/rdock/2013.1/src/exe/rbdock.cxx#4 $)

>  <Rbt.Library>
libRbt.so (2013.1, Build901 2013/11/27)

>  <Rbt.Parameter_File>
/export/apps/rDock/src/rDock_2013.1_src/data/scripts/dock_solv.prm

>  <Rbt.Receptor>
prm/pocket_docking_3.prm

>  <SCORE>
-27.7339

>  <SCORE.INTER>
-23.7804

>  <SCORE.INTER.CONST>
1

>  <SCORE.INTER.POLAR>
-0.8

>  <SCORE.INTER.ROT>
10

>  <SCORE.INTER.SOLV>
9.20657

>  <SCORE.INTER.VDW>
-26.5224

>  <SCORE.INTER.norm>
-0.792679

>  <SCORE.INTRA>
-4.04738

>  <SCORE.INTRA.DIHEDRAL>
-9.76291

>  <SCORE.INTRA.DIHEDRAL.0>
18.0451

>  <SCORE.INTRA.POLAR>
-0.518776

>  <SCORE.INTRA.POLAR.0>
-0.196815

>  <SCORE.INTRA.REPUL>
0

>  <SCORE.INTRA.REPUL.0>
0

>  <SCORE.INTRA.SOLV>
-0.0337726

>  <SCORE.INTRA.SOLV.lig_0>
-14.7906

>  <SCORE.INTRA.VDW>
2.6148

>  <SCORE.INTRA.VDW.0>
-0.411701

>  <SCORE.INTRA.norm>
-0.134913

>  <SCORE.RESTR>
0.0938933

>  <SCORE.RESTR.CAVITY>
0.0938933

>  <SCORE.RESTR.norm>
0.00312978

>  <SCORE.SYSTEM>
0

>  <SCORE.SYSTEM.CONST>
0

>  <SCORE.SYSTEM.DIHEDRAL>
0

>  <SCORE.SYSTEM.SOLV>
0

>  <SCORE.SYSTEM.norm>
0

>  <SCORE.heavy>
30

>  <SCORE.norm>
-0.924462

>  <RMSD>
2.429

$$$$
1uts_lig
 OpenBabel11021811413D
libRbt.so/2013.1/901 2013/11/27
 30 33  0  0  0  0  0  0  0  0999 V2000
    5.3166    5.2462   17.5750 N   0  0  0  0  0  0  0  0  0  0  0  0
    3.8958    3.6223   16.3996 C   0  0  0  0  0  0  0  0  0  0  0  0
    0.4028    0.5593   15.5105 C   0  0  0  0  0  0  0  0  0  0  0  0
    2.5436    3.4856   15.6938 C   0  0  0  0  0  0  0  0  0  0  0  0
    1.5608    3.0251   16.6329 O   0  0  0  0  0  0  0  0  0  0  0  0
    3.9191    4.9169   17.2142 C   0  0  0  0  0  0  0  0  0  0  0  0
    1.0636    0.3511   16.8190 N   0  0  0  0  0  0  0  0  0  0  0  0
    1.9471   -0.8429   16.7496 C   0  0  0  0  0  0  0  0  0  0  0  0
    2.5828   -1.0970   18.1195 C   0  0  0  0  0  0  0  0  0  0  0  0
    3.2960   -2.3938   18.0987 N   0  0  0  0  0  0  0  0  0  0  0  0
    2.3164   -3.4979   18.3118 C   0  0  0  0  0  0  0  0  0  0  0  0
    4.3329   -2.4048   19.1691 C   0  0  0  0  0  0  0  0  0  0  0  0
    3.0542   -4.8464   18.2947 C   0  0  0  0  0  0  0  0  0  0  0  0
    5.0699   -3.7561   19.1553 C   0  0  0  0  0  0  0  0  0  0  0  0
    4.0906   -4.8584   19.3658 N   0  0  0  0  0  0  0  0  0  0  0  0
   -1.7536    4.3750   15.4394 C   0  0  0  0  0  0  0  0  0  0  0  0
   -7.5344    3.5296   12.7458 N   0  0  0  0  0  0  0  0  0  0  0  0
   -2.3378    3.2168   14.8732 C   0  0  0  0  0  0  0  0  0  0  0  0
   -1.6334    1.9836   14.8992 C   0  0  0  0  0  0  0  0  0  0  0  0
   -0.3445    1.9081   15.4949 C   0  0  0  0  0  0  0  0  0  0  0  0
    0.2497    3.0808   16.0507 C   0  0  0  0  0  0  0  0  0  0  0  0
   -0.4615    4.3117   16.0245 C   0  0  0  0  0  0  0  0  0  0  0  0
   -8.2264    3.1475   13.9176 C   0  0  0  0  0  0  0  0  0  0  0  0
   -7.3240    2.8695   14.9692 C   0  0  0  0  0  0  0  0  0  0  0  0
   -4.7659    2.9872   15.0500 C   0  0  0  0  0  0  0  0  0  0  0  0
   -3.6084    3.2994   14.2863 C   0  0  0  0  0  0  0  0  0  0  0  0
   -3.7420    3.7020   12.9290 C   0  0  0  0  0  0  0  0  0  0  0  0
   -5.0311    3.7942   12.3380 C   0  0  0  0  0  0  0  0  0  0  0  0
   -6.1946    3.4929   13.1130 C   0  0  0  0  0  0  0  0  0  0  0  0
   -6.0643    3.0938   14.4558 C   0  0  0  0  0  0  0  0  0  0  0  0
  1  6  1  0  0  0  0
  2  4  1  0  0  0  0
  3  7  1  0  0  0  0
  4  5  1  0  0  0  0
  6  2  1  0  0  0  0
  7  8  1  0  0  0  0
  8  9  1  0  0  0  0
  9 10  1  0  0  0  0
 10 11  1  0  0  0  0
 10 12  1  0  0  0  0
 11 13  1  0  0  0  0
 13 15  1  0  0  0  0
 14 12  1  0  0  0  0
 15 14  1  0  0  0  0
 16 18  2  0  0  0  0
 16 22  1  0  0  0  0
 17 23  1  0  0  0  0
 17 29  1  0  0  0  0
 18 19  1  0  0  0  0
 18 26  1  0  0  0  0
 19 20  2  0  0  0  0
 20  3  1  0  0  0  0
 20 21  1  0  0  0  0
 21  5  1  0  0  0  0
 21 22  2  0  0  0  0
 23 24  2  0  0  0  0
 24 30  1  0  0  0  0
 25 26  2  0  0  0  0
 25 30  1  0  0  0  0
 26 27  1  0  0  0  0
 27 28  2  0  0  0  0
 28 29  1  0  0  0  0
 29 30  2  0  0  0  0
M  END
>  <CHROM.1>
44.96343686,-78.48882389,-171.32131518,171.36006373,-164.03080614,-177.47357119
171.60690643,-81.47587360,-94.12574906,-138.45870737,98.38548600,-0.22228932
1.45705178,16.09077529,-0.56200988,-0.31757582,-0.24262428

>  <Name>
1uts_lig

>  <RI>
0

>  <Rbt.Current_Directory>
/home/itssahil/PROJECTS/Mol_Feturizer/New_Systems/rnas/1uts

>  <Rbt.Executable>
rbdock ($Id: //depot/dev/client3/rdock/2013.1/src/exe/rbdock.cxx#4 $)

>  <Rbt.Library>
libRbt.so (2013.1, Build901 2013/11/27)

>  <Rbt.Parameter_File>
/export/apps/rDock/src/rDock_2013.1_src/data/scripts/dock_solv.prm

>  <Rbt.Receptor>
prm/pocket_docking_4.prm

>  <SCORE>
-30.5015

>  <SCORE.INTER>
-25.5969

>  <SCORE.INTER.CONST>
1

>  <SCORE.INTER.POLAR>
-1.37975

>  <SCORE.INTER.ROT>
10

>  <SCORE.INTER.SOLV>
9.49104

>  <SCORE.INTER.VDW>
-25.8958

>  <SCORE.INTER.norm>
-0.85323

>  <SCORE.INTRA>
-4.90459

>  <SCORE.INTRA.DIHEDRAL>
-3.31658

>  <SCORE.INTRA.DIHEDRAL.0>
18.0451

>  <SCORE.INTRA.POLAR>
-0.516343

>  <SCORE.INTRA.POLAR.0>
-0.196815

>  <SCORE.INTRA.REPUL>
0

>  <SCORE.INTRA.REPUL.0>
0

>  <SCORE.INTRA.SOLV>
-0.284204

>  <SCORE.INTRA.SOLV.lig_0>
-14.7906

>  <SCORE.INTRA.VDW>
-1.34863

>  <SCORE.INTRA.VDW.0>
-0.411701

>  <SCORE.INTRA.norm>
-0.163486

>  <SCORE.RESTR>
0

>  <SCORE.RESTR.CAVITY>
0

>  <SCORE.RESTR.norm>
0

>  <SCORE.SYSTEM>
0

>  <SCORE.SYSTEM.CONST>
0

>  <SCORE.SYSTEM.DIHEDRAL>
0

>  <SCORE.SYSTEM.SOLV>
0

>  <SCORE.SYSTEM.norm>
0

>  <SCORE.heavy>
30

>  <SCORE.norm>
-1.01672

>  <RMSD>
2.440

$$$$
1uts_lig
 OpenBabel11021811413D
libRbt.so/2013.1/901 2013/11/27
 30 33  0  0  0  0  0  0  0  0999 V2000
    5.3161    2.0705   20.6491 N   0  0  0  0  0  0  0  0  0  0  0  0
    4.1200    3.6303   19.1748 C   0  0  0  0  0  0  0  0  0  0  0  0
    0.9033    0.6382   17.1570 C   0  0  0  0  0  0  0  0  0  0  0  0
    2.8516    3.8226   18.3385 C   0  0  0  0  0  0  0  0  0  0  0  0
    2.8335    2.8613   17.2730 O   0  0  0  0  0  0  0  0  0  0  0  0
    4.1010    2.2440   19.8214 C   0  0  0  0  0  0  0  0  0  0  0  0
    1.7026   -0.3022   16.3391 N   0  0  0  0  0  0  0  0  0  0  0  0
    1.8443   -1.5959   17.0583 C   0  0  0  0  0  0  0  0  0  0  0  0
    2.9211   -1.4717   18.1402 C   0  0  0  0  0  0  0  0  0  0  0  0
    2.9467   -2.7078   18.9540 N   0  0  0  0  0  0  0  0  0  0  0  0
    3.7211   -2.4585   20.2038 C   0  0  0  0  0  0  0  0  0  0  0  0
    3.5723   -3.8062   18.1648 C   0  0  0  0  0  0  0  0  0  0  0  0
    3.7531   -3.7415   21.0500 C   0  0  0  0  0  0  0  0  0  0  0  0
    3.6083   -5.0906   19.0125 C   0  0  0  0  0  0  0  0  0  0  0  0
    4.3799   -4.8402   20.2616 N   0  0  0  0  0  0  0  0  0  0  0  0
    0.2590    4.3847   14.9746 C   0  0  0  0  0  0  0  0  0  0  0  0
   -5.1061    3.9783   11.4637 N   0  0  0  0  0  0  0  0  0  0  0  0
   -0.6841    3.3338   14.8780 C   0  0  0  0  0  0  0  0  0  0  0  0
   -0.4689    2.1222   15.5875 C   0  0  0  0  0  0  0  0  0  0  0  0
    0.6892    1.9627   16.3969 C   0  0  0  0  0  0  0  0  0  0  0  0
    1.6471    3.0176   16.4798 C   0  0  0  0  0  0  0  0  0  0  0  0
    1.4249    4.2293   15.7699 C   0  0  0  0  0  0  0  0  0  0  0  0
   -4.3771    4.2086   10.2749 C   0  0  0  0  0  0  0  0  0  0  0  0
   -2.9859    4.1890   10.5236 C   0  0  0  0  0  0  0  0  0  0  0  0
   -1.6824    3.7852   12.6919 C   0  0  0  0  0  0  0  0  0  0  0  0
   -1.8228    3.4978   14.0769 C   0  0  0  0  0  0  0  0  0  0  0  0
   -3.1196    3.3700   14.6464 C   0  0  0  0  0  0  0  0  0  0  0  0
   -4.2731    3.5273   13.8313 C   0  0  0  0  0  0  0  0  0  0  0  0
   -4.1283    3.8027   12.4355 C   0  0  0  0  0  0  0  0  0  0  0  0
   -2.8462    3.9301   11.8704 C   0  0  0  0  0  0  0  0  0  0  0  0
  1  6  1  0  0  0  0
  2  4  1  0  0  0  0
  3  7  1  0  0  0  0
  4  5  1  0  0  0  0
  6  2  1  0  0  0  0
  7  8  1  0  0  0  0
  8  9  1  0  0  0  0
  9 10  1  0  0  0  0
 10 11  1  0  0  0  0
 10 12  1  0  0  0  0
 11 13  1  0  0  0  0
 13 15  1  0  0  0  0
 14 12  1  0  0  0  0
 15 14  1  0  0  0  0
 16 18  2  0  0  0  0
 16 22  1  0  0  0  0
 17 23  1  0  0  0  0
 17 29  1  0  0  0  0
 18 19  1  0  0  0  0
 18 26  1  0  0  0  0
 19 20  2  0  0  0  0
 20  3  1  0  0  0  0
 20 21  1  0  0  0  0
 21  5  1  0  0  0  0
 21 22  2  0  0  0  0
 23 24  2  0  0  0  0
 24 30  1  0  0  0  0
 25 26  2  0  0  0  0
 25 30  1  0  0  0  0
 26 27  1  0  0  0  0
 27 28  2  0  0  0  0
 28 29  1  0  0  0  0
 29 30  2  0  0  0  0
M  END
>  <CHROM.1>
-177.29818771,-62.95105413,-177.30017440,179.62423970,-178.96953699,-78.53782766
173.43050451,-165.27101037,58.25336031,91.81405578,-117.28723345,0.86892162
1.28780310,16.41112153,-0.61722022,-0.74515451,-0.10026550

>  <Name>
1uts_lig

>  <RI>
0

>  <Rbt.Current_Directory>
/home/itssahil/PROJECTS/Mol_Feturizer/New_Systems/rnas/1uts

>  <Rbt.Executable>
rbdock ($Id: //depot/dev/client3/rdock/2013.1/src/exe/rbdock.cxx#4 $)

>  <Rbt.Library>
libRbt.so (2013.1, Build901 2013/11/27)

>  <Rbt.Parameter_File>
/export/apps/rDock/src/rDock_2013.1_src/data/scripts/dock_solv.prm

>  <Rbt.Receptor>
prm/pocket_docking_3.prm

>  <SCORE>
-19.0186

>  <SCORE.INTER>
-15.3573

>  <SCORE.INTER.CONST>
1

>  <SCORE.INTER.POLAR>
0

>  <SCORE.INTER.ROT>
10

>  <SCORE.INTER.SOLV>
9.47355

>  <SCORE.INTER.VDW>
-23.6627

>  <SCORE.INTER.norm>
-0.511911

>  <SCORE.INTRA>
-3.66123

>  <SCORE.INTRA.DIHEDRAL>
-8.55784

>  <SCORE.INTRA.DIHEDRAL.0>
18.0451

>  <SCORE.INTRA.POLAR>
0.196815

>  <SCORE.INTRA.POLAR.0>
-0.196815

>  <SCORE.INTRA.REPUL>
0

>  <SCORE.INTRA.REPUL.0>
0

>  <SCORE.INTRA.SOLV>
-0.508455

>  <SCORE.INTRA.SOLV.lig_0>
-14.7906

>  <SCORE.INTRA.VDW>
0.20274

>  <SCORE.INTRA.VDW.0>
-0.411701

>  <SCORE.INTRA.norm>
-0.122041

>  <SCORE.RESTR>
0

>  <SCORE.RESTR.CAVITY>
0

>  <SCORE.RESTR.norm>
0

>  <SCORE.SYSTEM>
0

>  <SCORE.SYSTEM.CONST>
0

>  <SCORE.SYSTEM.DIHEDRAL>
0

>  <SCORE.SYSTEM.SOLV>
0

>  <SCORE.SYSTEM.norm>
0

>  <SCORE.heavy>
30

>  <SCORE.norm>
-0.633952

>  <RMSD>
2.451

$$$$
1uts_lig
 OpenBabel11021811413D
libRbt.so/2013.1/901 2013/11/27
 30 33  0  0  0  0  0  0  0  0999 V2000
    4.4467    6.0021   18.5730 N   0  0  0  0  0  0  0  0  0  0  0  0
    3.9358    4.6629   16.5773 C   0  0  0  0  0  0  0  0  0  0  0  0
    0.7043    0.4233   16.9115 C   0  0  0  0  0  0  0  0  0  0  0  0
    3.7353    3.2287   16.0792 C   0  0  0  0  0  0  0  0  0  0  0  0
    2.6791    2.6083   16.8269 O   0  0  0  0  0  0  0  0  0  0  0  0
    4.4898    4.6365   18.0030 C   0  0  0  0  0  0  0  0  0  0  0  0
    2.1370    0.0608   16.8232 N   0  0  0  0  0  0  0  0  0  0  0  0
    2.5019   -0.8207   17.9638 C   0  0  0  0  0  0  0  0  0  0  0  0
    3.8285   -1.5268   17.6689 C   0  0  0  0  0  0  0  0  0  0  0  0
    4.8689   -0.5166   17.3722 N   0  0  0  0  0  0  0  0  0  0  0  0
    6.0476   -1.1902   16.7552 C   0  0  0  0  0  0  0  0  0  0  0  0
    5.2643    0.1708   18.6340 C   0  0  0  0  0  0  0  0  0  0  0  0
    7.1320   -0.1445   16.4491 C   0  0  0  0  0  0  0  0  0  0  0  0
    6.3529    1.2157   18.3293 C   0  0  0  0  0  0  0  0  0  0  0  0
    7.5287    0.5425   17.7109 N   0  0  0  0  0  0  0  0  0  0  0  0
   -0.0847    4.1814   14.7976 C   0  0  0  0  0  0  0  0  0  0  0  0
   -6.0262    3.8964   12.2820 N   0  0  0  0  0  0  0  0  0  0  0  0
   -1.0530    3.1490   14.7992 C   0  0  0  0  0  0  0  0  0  0  0  0
   -0.7907    1.9336   15.4858 C   0  0  0  0  0  0  0  0  0  0  0  0
    0.4401    1.7516   16.1742 C   0  0  0  0  0  0  0  0  0  0  0  0
    1.4217    2.7876   16.1576 C   0  0  0  0  0  0  0  0  0  0  0  0
    1.1524    4.0033   15.4712 C   0  0  0  0  0  0  0  0  0  0  0  0
   -6.8349    3.6334   13.4109 C   0  0  0  0  0  0  0  0  0  0  0  0
   -6.0426    3.3087   14.5354 C   0  0  0  0  0  0  0  0  0  0  0  0
   -3.4982    3.1719   14.8023 C   0  0  0  0  0  0  0  0  0  0  0  0
   -2.2636    3.3351   14.1170 C   0  0  0  0  0  0  0  0  0  0  0  0
   -2.2587    3.6940   12.7410 C   0  0  0  0  0  0  0  0  0  0  0  0
   -3.4864    3.8914   12.0530 C   0  0  0  0  0  0  0  0  0  0  0  0
   -4.7266    3.7401   12.7488 C   0  0  0  0  0  0  0  0  0  0  0  0
   -4.7334    3.3845   14.1100 C   0  0  0  0  0  0  0  0  0  0  0  0
  1  6  1  0  0  0  0
  2  4  1  0  0  0  0
  3  7  1  0  0  0  0
  4  5  1  0  0  0  0
  6  2  1  0  0  0  0
  7  8  1  0  0  0  0
  8  9  1  0  0  0  0
  9 10  1  0  0  0  0
 10 11  1  0  0  0  0
 10 12  1  0  0  0  0
 11 13  1  0  0  0  0
 13 15  1  0  0  0  0
 14 12  1  0  0  0  0
 15 14  1  0  0  0  0
 16 18  2  0  0  0  0
 16 22  1  0  0  0  0
 17 23  1  0  0  0  0
 17 29  1  0  0  0  0
 18 19  1  0  0  0  0
 18 26  1  0  0  0  0
 19 20  2  0  0  0  0
 20  3  1  0  0  0  0
 20 21  1  0  0  0  0
 21  5  1  0  0  0  0
 21 22  2  0  0  0  0
 23 24  2  0  0  0  0
 24 30  1  0  0  0  0
 25 26  2  0  0  0  0
 25 30  1  0  0  0  0
 26 27  1  0  0  0  0
 27 28  2  0  0  0  0
 28 29  1  0  0  0  0
 29 30  2  0  0  0  0
M  END
>  <CHROM.1>
65.06727249,67.69562317,155.34259560,92.20273041,-169.56889447,163.30433779
55.83328844,-165.75125322,-124.96887272,145.01399287,143.50388465,1.11481500
2.27468400,15.90812937,-0.25854500,-0.38598866,-0.03390409

>  <Name>
1uts_lig

>  <RI>
0

>  <Rbt.Current_Directory>
/home/itssahil/PROJECTS/Mol_Feturizer/New_Systems/rnas/1uts

>  <Rbt.Executable>
rbdock ($Id: //depot/dev/client3/rdock/2013.1/src/exe/rbdock.cxx#4 $)

>  <Rbt.Library>
libRbt.so (2013.1, Build901 2013/11/27)

>  <Rbt.Parameter_File>
/export/apps/rDock/src/rDock_2013.1_src/data/scripts/dock_solv.prm

>  <Rbt.Receptor>
prm/pocket_docking_4.prm

>  <SCORE>
-27.3854

>  <SCORE.INTER>
-24.0915

>  <SCORE.INTER.CONST>
1

>  <SCORE.INTER.POLAR>
-0.632456

>  <SCORE.INTER.ROT>
10

>  <SCORE.INTER.SOLV>
10.581

>  <SCORE.INTER.VDW>
-27.7465

>  <SCORE.INTER.norm>
-0.803049

>  <SCORE.INTRA>
-3.29396

>  <SCORE.INTRA.DIHEDRAL>
-5.26702

>  <SCORE.INTRA.DIHEDRAL.0>
18.0451

>  <SCORE.INTRA.POLAR>
-0.705765

>  <SCORE.INTRA.POLAR.0>
-0.196815

>  <SCORE.INTRA.REPUL>
0

>  <SCORE.INTRA.REPUL.0>
0

>  <SCORE.INTRA.SOLV>
0.256139

>  <SCORE.INTRA.SOLV.lig_0>
-14.7906

>  <SCORE.INTRA.VDW>
1.61108

>  <SCORE.INTRA.VDW.0>
-0.411701

>  <SCORE.INTRA.norm>
-0.109799

>  <SCORE.RESTR>
0

>  <SCORE.RESTR.CAVITY>
0

>  <SCORE.RESTR.norm>
0

>  <SCORE.SYSTEM>
0

>  <SCORE.SYSTEM.CONST>
0

>  <SCORE.SYSTEM.DIHEDRAL>
0

>  <SCORE.SYSTEM.SOLV>
0

>  <SCORE.SYSTEM.norm>
0

>  <SCORE.heavy>
30

>  <SCORE.norm>
-0.912848

>  <RMSD>
2.454

$$$$
1uts_lig
 OpenBabel11021811413D
libRbt.so/2013.1/901 2013/11/27
 30 33  0  0  0  0  0  0  0  0999 V2000
    5.1788    6.4540   19.8732 N   0  0  0  0  0  0  0  0  0  0  0  0
    5.2835    4.2828   18.7277 C   0  0  0  0  0  0  0  0  0  0  0  0
    1.0785    1.5095   18.6103 C   0  0  0  0  0  0  0  0  0  0  0  0
    3.9357    4.4275   18.0152 C   0  0  0  0  0  0  0  0  0  0  0  0
    3.3906    3.1250   17.7584 O   0  0  0  0  0  0  0  0  0  0  0  0
    5.9333    5.6596   18.8776 C   0  0  0  0  0  0  0  0  0  0  0  0
    2.4406    0.9487   18.7600 N   0  0  0  0  0  0  0  0  0  0  0  0
    2.5270   -0.3539   18.0481 C   0  0  0  0  0  0  0  0  0  0  0  0
    3.8271   -1.0676   18.4302 C   0  0  0  0  0  0  0  0  0  0  0  0
    3.8283   -2.4309   17.8539 N   0  0  0  0  0  0  0  0  0  0  0  0
    2.8206   -3.2677   18.5666 C   0  0  0  0  0  0  0  0  0  0  0  0
    5.1883   -3.0245   17.9918 C   0  0  0  0  0  0  0  0  0  0  0  0
    2.8217   -4.6858   17.9732 C   0  0  0  0  0  0  0  0  0  0  0  0
    5.1897   -4.4460   17.4012 C   0  0  0  0  0  0  0  0  0  0  0  0
    4.1814   -5.2804   18.1120 N   0  0  0  0  0  0  0  0  0  0  0  0
    0.8755    4.2125   15.1655 C   0  0  0  0  0  0  0  0  0  0  0  0
   -4.8528    3.8291   12.3197 N   0  0  0  0  0  0  0  0  0  0  0  0
   -0.2527    3.4400   15.5313 C   0  0  0  0  0  0  0  0  0  0  0  0
   -0.1799    2.5658   16.6483 C   0  0  0  0  0  0  0  0  0  0  0  0
    1.0215    2.4663   17.4023 C   0  0  0  0  0  0  0  0  0  0  0  0
    2.1631    3.2339   17.0219 C   0  0  0  0  0  0  0  0  0  0  0  0
    2.0834    4.1097   15.9046 C   0  0  0  0  0  0  0  0  0  0  0  0
   -4.1893    4.0090   11.0847 C   0  0  0  0  0  0  0  0  0  0  0  0
   -2.7872    4.0261   11.2623 C   0  0  0  0  0  0  0  0  0  0  0  0
   -1.3685    3.7590   13.3789 C   0  0  0  0  0  0  0  0  0  0  0  0
   -1.4333    3.5424   14.7822 C   0  0  0  0  0  0  0  0  0  0  0  0
   -2.6970    3.4227   15.4234 C   0  0  0  0  0  0  0  0  0  0  0  0
   -3.8929    3.5174   14.6615 C   0  0  0  0  0  0  0  0  0  0  0  0
   -3.8241    3.7215   13.2478 C   0  0  0  0  0  0  0  0  0  0  0  0
   -2.5748    3.8407   12.6118 C   0  0  0  0  0  0  0  0  0  0  0  0
  1  6  1  0  0  0  0
  2  4  1  0  0  0  0
  3  7  1  0  0  0  0
  4  5  1  0  0  0  0
  6  2  1  0  0  0  0
  7  8  1  0  0  0  0
  8  9  1  0  0  0  0
  9 10  1  0  0  0  0
 10 11  1  0  0  0  0
 10 12  1  0  0  0  0
 11 13  1  0  0  0  0
 13 15  1  0  0  0  0
 14 12  1  0  0  0  0
 15 14  1  0  0  0  0
 16 18  2  0  0  0  0
 16 22  1  0  0  0  0
 17 23  1  0  0  0  0
 17 29  1  0  0  0  0
 18 19  1  0  0  0  0
 18 26  1  0  0  0  0
 19 20  2  0  0  0  0
 20  3  1  0  0  0  0
 20 21  1  0  0  0  0
 21  5  1  0  0  0  0
 21 22  2  0  0  0  0
 23 24  2  0  0  0  0
 24 30  1  0  0  0  0
 25 26  2  0  0  0  0
 25 30  1  0  0  0  0
 26 27  1  0  0  0  0
 27 28  2  0  0  0  0
 28 29  1  0  0  0  0
 29 30  2  0  0  0  0
M  END
>  <CHROM.1>
-57.76649674,174.35625654,-93.47068443,-176.67703172,70.44441261,-168.64603911
172.99256416,-70.11153962,34.40220062,147.19089685,-134.64560187,1.35318151
1.76591108,16.51047557,-0.56991307,-0.63028588,0.01154398

>  <Name>
1uts_lig

>  <RI>
0

>  <Rbt.Current_Directory>
/home/itssahil/PROJECTS/Mol_Feturizer/New_Systems/rnas/1uts

>  <Rbt.Executable>
rbdock ($Id: //depot/dev/client3/rdock/2013.1/src/exe/rbdock.cxx#4 $)

>  <Rbt.Library>
libRbt.so (2013.1, Build901 2013/11/27)

>  <Rbt.Parameter_File>
/export/apps/rDock/src/rDock_2013.1_src/data/scripts/dock_solv.prm

>  <Rbt.Receptor>
prm/pocket_docking_4.prm

>  <SCORE>
-28.3578

>  <SCORE.INTER>
-23.5052

>  <SCORE.INTER.CONST>
1

>  <SCORE.INTER.POLAR>
-1.34446

>  <SCORE.INTER.ROT>
10

>  <SCORE.INTER.SOLV>
8.9487

>  <SCORE.INTER.VDW>
-24.4381

>  <SCORE.INTER.norm>
-0.783505

>  <SCORE.INTRA>
-4.85266

>  <SCORE.INTRA.DIHEDRAL>
-9.88649

>  <SCORE.INTRA.DIHEDRAL.0>
18.0451

>  <SCORE.INTRA.POLAR>
-0.72977

>  <SCORE.INTRA.POLAR.0>
-0.196815

>  <SCORE.INTRA.REPUL>
0

>  <SCORE.INTRA.REPUL.0>
0

>  <SCORE.INTRA.SOLV>
-0.163247

>  <SCORE.INTRA.SOLV.lig_0>
-14.7906

>  <SCORE.INTRA.VDW>
2.65343

>  <SCORE.INTRA.VDW.0>
-0.411701

>  <SCORE.INTRA.norm>
-0.161755

>  <SCORE.RESTR>
0

>  <SCORE.RESTR.CAVITY>
0

>  <SCORE.RESTR.norm>
0

>  <SCORE.SYSTEM>
0

>  <SCORE.SYSTEM.CONST>
0

>  <SCORE.SYSTEM.DIHEDRAL>
0

>  <SCORE.SYSTEM.SOLV>
0

>  <SCORE.SYSTEM.norm>
0

>  <SCORE.heavy>
30

>  <SCORE.norm>
-0.94526

>  <RMSD>
2.462

$$$$
1uts_lig
 OpenBabel11021811413D
libRbt.so/2013.1/901 2013/11/27
 30 33  0  0  0  0  0  0  0  0999 V2000
    6.0486    5.5710   17.1211 N   0  0  0  0  0  0  0  0  0  0  0  0
    4.3605    3.7857   17.1381 C   0  0  0  0  0  0  0  0  0  0  0  0
    0.4341    0.2942   16.8939 C   0  0  0  0  0  0  0  0  0  0  0  0
    2.8624    3.5228   17.3167 C   0  0  0  0  0  0  0  0  0  0  0  0
    2.4828    2.3810   16.5344 O   0  0  0  0  0  0  0  0  0  0  0  0
    4.6841    5.2163   17.5727 C   0  0  0  0  0  0  0  0  0  0  0  0
    1.6341   -0.3916   16.3631 N   0  0  0  0  0  0  0  0  0  0  0  0
    2.0787   -1.4373   17.3221 C   0  0  0  0  0  0  0  0  0  0  0  0
    3.3035   -0.9423   18.0970 C   0  0  0  0  0  0  0  0  0  0  0  0
    4.5263   -1.2043   17.3052 N   0  0  0  0  0  0  0  0  0  0  0  0
    5.3163   -2.2850   17.9625 C   0  0  0  0  0  0  0  0  0  0  0  0
    5.3321    0.0459   17.2121 C   0  0  0  0  0  0  0  0  0  0  0  0
    6.5893   -2.5572   17.1448 C   0  0  0  0  0  0  0  0  0  0  0  0
    6.6090   -0.2265   16.3967 C   0  0  0  0  0  0  0  0  0  0  0  0
    7.3962   -1.3075   17.0525 N   0  0  0  0  0  0  0  0  0  0  0  0
   -0.3690    3.9688   14.6429 C   0  0  0  0  0  0  0  0  0  0  0  0
   -6.5054    3.7780   12.6153 N   0  0  0  0  0  0  0  0  0  0  0  0
   -1.3751    2.9824   14.7773 C   0  0  0  0  0  0  0  0  0  0  0  0
   -1.1080    1.7938   15.5077 C   0  0  0  0  0  0  0  0  0  0  0  0
    0.1657    1.5928   16.1069 C   0  0  0  0  0  0  0  0  0  0  0  0
    1.1841    2.5815   15.9564 C   0  0  0  0  0  0  0  0  0  0  0  0
    0.9101    3.7707   15.2268 C   0  0  0  0  0  0  0  0  0  0  0  0
   -7.2395    3.3772   13.7547 C   0  0  0  0  0  0  0  0  0  0  0  0
   -6.3741    2.9764   14.7979 C   0  0  0  0  0  0  0  0  0  0  0  0
   -3.8155    2.9117   14.9136 C   0  0  0  0  0  0  0  0  0  0  0  0
   -2.6280    3.1869   14.1825 C   0  0  0  0  0  0  0  0  0  0  0  0
   -2.7133    3.6762   12.8500 C   0  0  0  0  0  0  0  0  0  0  0  0
   -3.9840    3.8918   12.2514 C   0  0  0  0  0  0  0  0  0  0  0  0
   -5.1769    3.6272   12.9943 C   0  0  0  0  0  0  0  0  0  0  0  0
   -5.0945    3.1425   14.3125 C   0  0  0  0  0  0  0  0  0  0  0  0
  1  6  1  0  0  0  0
  2  4  1  0  0  0  0
  3  7  1  0  0  0  0
  4  5  1  0  0  0  0
  6  2  1  0  0  0  0
  7  8  1  0  0  0  0
  8  9  1  0  0  0  0
  9 10  1  0  0  0  0
 10 11  1  0  0  0  0
 10 12  1  0  0  0  0
 11 13  1  0  0  0  0
 13 15  1  0  0  0  0
 14 12  1  0  0  0  0
 15 14  1  0  0  0  0
 16 18  2  0  0  0  0
 16 22  1  0  0  0  0
 17 23  1  0  0  0  0
 17 29  1  0  0  0  0
 18 19  1  0  0  0  0
 18 26  1  0  0  0  0
 19 20  2  0  0  0  0
 20  3  1  0  0  0  0
 20 21  1  0  0  0  0
 21  5  1  0  0  0  0
 21 22  2  0  0  0  0
 23 24  2  0  0  0  0
 24 30  1  0  0  0  0
 25 26  2  0  0  0  0
 25 30  1  0  0  0  0
 26 27  1  0  0  0  0
 27 28  2  0  0  0  0
 28 29  1  0  0  0  0
 29 30  2  0  0  0  0
M  END
>  <CHROM.1>
168.07849344,161.65109814,165.94005975,-142.17393951,-167.32857066,-103.25419853
-84.43693596,-109.87015855,-134.81361442,125.09163424,-128.76584971,0.88944975
1.87031749,15.81621530,-0.33354575,-0.30094421,-0.11333765

>  <Name>
1uts_lig

>  <RI>
0

>  <Rbt.Current_Directory>
/home/itssahil/PROJECTS/Mol_Feturizer/New_Systems/rnas/1uts

>  <Rbt.Executable>
rbdock ($Id: //depot/dev/client3/rdock/2013.1/src/exe/rbdock.cxx#4 $)

>  <Rbt.Library>
libRbt.so (2013.1, Build901 2013/11/27)

>  <Rbt.Parameter_File>
/export/apps/rDock/src/rDock_2013.1_src/data/scripts/dock_solv.prm

>  <Rbt.Receptor>
prm/pocket_docking_5.prm

>  <SCORE>
-27.5771

>  <SCORE.INTER>
-27.8932

>  <SCORE.INTER.CONST>
1

>  <SCORE.INTER.POLAR>
-1.46541

>  <SCORE.INTER.ROT>
10

>  <SCORE.INTER.SOLV>
10.5118

>  <SCORE.INTER.VDW>
-27.4813

>  <SCORE.INTER.norm>
-0.929773

>  <SCORE.INTRA>
0.316128

>  <SCORE.INTRA.DIHEDRAL>
3.90628

>  <SCORE.INTRA.DIHEDRAL.0>
18.0451

>  <SCORE.INTRA.POLAR>
-0.448388

>  <SCORE.INTRA.POLAR.0>
-0.196815

>  <SCORE.INTRA.REPUL>
0

>  <SCORE.INTRA.REPUL.0>
0

>  <SCORE.INTRA.SOLV>
-0.122348

>  <SCORE.INTRA.SOLV.lig_0>
-14.7906

>  <SCORE.INTRA.VDW>
-0.0513183

>  <SCORE.INTRA.VDW.0>
-0.411701

>  <SCORE.INTRA.norm>
0.0105376

>  <SCORE.RESTR>
0

>  <SCORE.RESTR.CAVITY>
0

>  <SCORE.RESTR.norm>
0

>  <SCORE.SYSTEM>
0

>  <SCORE.SYSTEM.CONST>
0

>  <SCORE.SYSTEM.DIHEDRAL>
0

>  <SCORE.SYSTEM.SOLV>
0

>  <SCORE.SYSTEM.norm>
0

>  <SCORE.heavy>
30

>  <SCORE.norm>
-0.919235

>  <RMSD>
2.502

$$$$
1uts_lig
 OpenBabel11021811413D
libRbt.so/2013.1/901 2013/11/27
 30 33  0  0  0  0  0  0  0  0999 V2000
    3.7328    6.9037   19.4065 N   0  0  0  0  0  0  0  0  0  0  0  0
    4.0606    4.9376   17.9697 C   0  0  0  0  0  0  0  0  0  0  0  0
    2.7613    1.0162   16.2700 C   0  0  0  0  0  0  0  0  0  0  0  0
    4.1389    3.4082   17.9663 C   0  0  0  0  0  0  0  0  0  0  0  0
    2.9454    2.8691   18.5534 O   0  0  0  0  0  0  0  0  0  0  0  0
    3.9658    5.4418   19.4109 C   0  0  0  0  0  0  0  0  0  0  0  0
    2.0893   -0.2772   16.0098 N   0  0  0  0  0  0  0  0  0  0  0  0
    1.5488   -0.8256   17.2819 C   0  0  0  0  0  0  0  0  0  0  0  0
    2.6887   -1.4156   18.1173 C   0  0  0  0  0  0  0  0  0  0  0  0
    2.1235   -2.1775   19.2535 N   0  0  0  0  0  0  0  0  0  0  0  0
    3.1838   -2.3890   20.2805 C   0  0  0  0  0  0  0  0  0  0  0  0
    1.6065   -3.4862   18.7624 C   0  0  0  0  0  0  0  0  0  0  0  0
    2.6013   -3.1836   21.4606 C   0  0  0  0  0  0  0  0  0  0  0  0
    1.0264   -4.2843   19.9440 C   0  0  0  0  0  0  0  0  0  0  0  0
    2.0852   -4.4931   20.9704 N   0  0  0  0  0  0  0  0  0  0  0  0
   -0.2254    4.1495   16.9601 C   0  0  0  0  0  0  0  0  0  0  0  0
   -4.4853    3.9072   12.0901 N   0  0  0  0  0  0  0  0  0  0  0  0
   -0.3404    3.2909   15.8408 C   0  0  0  0  0  0  0  0  0  0  0  0
    0.6311    2.2780   15.6228 C   0  0  0  0  0  0  0  0  0  0  0  0
    1.7173    2.1215   16.5270 C   0  0  0  0  0  0  0  0  0  0  0  0
    1.8403    2.9989   17.6461 C   0  0  0  0  0  0  0  0  0  0  0  0
    0.8631    4.0091   17.8610 C   0  0  0  0  0  0  0  0  0  0  0  0
   -3.6669    4.0402   10.9453 C   0  0  0  0  0  0  0  0  0  0  0  0
   -2.2983    3.9813   11.2931 C   0  0  0  0  0  0  0  0  0  0  0  0
   -1.1656    3.6535   13.5677 C   0  0  0  0  0  0  0  0  0  0  0  0
   -1.4133    3.4521   14.9528 C   0  0  0  0  0  0  0  0  0  0  0  0
   -2.7505    3.4076   15.4347 C   0  0  0  0  0  0  0  0  0  0  0  0
   -3.8373    3.5619   14.5321 C   0  0  0  0  0  0  0  0  0  0  0  0
   -3.5852    3.7505   13.1372 C   0  0  0  0  0  0  0  0  0  0  0  0
   -2.2629    3.7954   12.6587 C   0  0  0  0  0  0  0  0  0  0  0  0
  1  6  1  0  0  0  0
  2  4  1  0  0  0  0
  3  7  1  0  0  0  0
  4  5  1  0  0  0  0
  6  2  1  0  0  0  0
  7  8  1  0  0  0  0
  8  9  1  0  0  0  0
  9 10  1  0  0  0  0
 10 11  1  0  0  0  0
 10 12  1  0  0  0  0
 11 13  1  0  0  0  0
 13 15  1  0  0  0  0
 14 12  1  0  0  0  0
 15 14  1  0  0  0  0
 16 18  2  0  0  0  0
 16 22  1  0  0  0  0
 17 23  1  0  0  0  0
 17 29  1  0  0  0  0
 18 19  1  0  0  0  0
 18 26  1  0  0  0  0
 19 20  2  0  0  0  0
 20  3  1  0  0  0  0
 20 21  1  0  0  0  0
 21  5  1  0  0  0  0
 21 22  2  0  0  0  0
 23 24  2  0  0  0  0
 24 30  1  0  0  0  0
 25 26  2  0  0  0  0
 25 30  1  0  0  0  0
 26 27  1  0  0  0  0
 27 28  2  0  0  0  0
 28 29  1  0  0  0  0
 29 30  2  0  0  0  0
M  END
>  <CHROM.1>
-62.09281789,61.51515607,-74.10664627,74.01640615,-173.49360820,-76.22360108
-169.56745858,-162.66355164,124.23783134,-49.29388866,76.11378215,0.76948873
1.73418346,16.81997673,-0.83663029,-0.73307698,-0.27401410

>  <Name>
1uts_lig

>  <RI>
0

>  <Rbt.Current_Directory>
/home/itssahil/PROJECTS/Mol_Feturizer/New_Systems/rnas/1uts

>  <Rbt.Executable>
rbdock ($Id: //depot/dev/client3/rdock/2013.1/src/exe/rbdock.cxx#4 $)

>  <Rbt.Library>
libRbt.so (2013.1, Build901 2013/11/27)

>  <Rbt.Parameter_File>
/export/apps/rDock/src/rDock_2013.1_src/data/scripts/dock_solv.prm

>  <Rbt.Receptor>
prm/pocket_docking_4.prm

>  <SCORE>
-23.2903

>  <SCORE.INTER>
-21.5924

>  <SCORE.INTER.CONST>
1

>  <SCORE.INTER.POLAR>
-1.42951

>  <SCORE.INTER.ROT>
10

>  <SCORE.INTER.SOLV>
8.76885

>  <SCORE.INTER.VDW>
-22.8195

>  <SCORE.INTER.norm>
-0.719748

>  <SCORE.INTRA>
-1.69787

>  <SCORE.INTRA.DIHEDRAL>
-6.25962

>  <SCORE.INTRA.DIHEDRAL.0>
18.0451

>  <SCORE.INTRA.POLAR>
0.196815

>  <SCORE.INTRA.POLAR.0>
-0.196815

>  <SCORE.INTRA.REPUL>
0

>  <SCORE.INTRA.REPUL.0>
0

>  <SCORE.INTRA.SOLV>
-0.528295

>  <SCORE.INTRA.SOLV.lig_0>
-14.7906

>  <SCORE.INTRA.VDW>
1.02691

>  <SCORE.INTRA.VDW.0>
-0.411701

>  <SCORE.INTRA.norm>
-0.0565957

>  <SCORE.RESTR>
0

>  <SCORE.RESTR.CAVITY>
0

>  <SCORE.RESTR.norm>
0

>  <SCORE.SYSTEM>
0

>  <SCORE.SYSTEM.CONST>
0

>  <SCORE.SYSTEM.DIHEDRAL>
0

>  <SCORE.SYSTEM.SOLV>
0

>  <SCORE.SYSTEM.norm>
0

>  <SCORE.heavy>
30

>  <SCORE.norm>
-0.776343

>  <RMSD>
2.544

$$$$
1uts_lig
 OpenBabel11021811413D
libRbt.so/2013.1/901 2013/11/27
 30 33  0  0  0  0  0  0  0  0999 V2000
    5.6152    5.4309   17.1230 N   0  0  0  0  0  0  0  0  0  0  0  0
    3.7293    3.9872   16.4935 C   0  0  0  0  0  0  0  0  0  0  0  0
    0.2243    0.2917   15.3771 C   0  0  0  0  0  0  0  0  0  0  0  0
    2.2012    3.9415   16.4040 C   0  0  0  0  0  0  0  0  0  0  0  0
    1.8009    2.7605   15.6936 O   0  0  0  0  0  0  0  0  0  0  0  0
    4.1586    5.2232   17.2862 C   0  0  0  0  0  0  0  0  0  0  0  0
    1.1368    0.3247   16.5425 N   0  0  0  0  0  0  0  0  0  0  0  0
    1.9761   -0.9026   16.5565 C   0  0  0  0  0  0  0  0  0  0  0  0
    2.6110   -1.0800   17.9388 C   0  0  0  0  0  0  0  0  0  0  0  0
    3.3413   -2.3667   17.9840 N   0  0  0  0  0  0  0  0  0  0  0  0
    2.3859   -3.4639   18.3115 C   0  0  0  0  0  0  0  0  0  0  0  0
    4.4164   -2.2889   19.0130 C   0  0  0  0  0  0  0  0  0  0  0  0
    3.1416   -4.8016   18.3630 C   0  0  0  0  0  0  0  0  0  0  0  0
    5.1715   -3.6292   19.0681 C   0  0  0  0  0  0  0  0  0  0  0  0
    4.2162   -4.7247   19.3929 N   0  0  0  0  0  0  0  0  0  0  0  0
   -1.4945    4.2532   14.6242 C   0  0  0  0  0  0  0  0  0  0  0  0
   -7.6883    3.5652   12.9733 N   0  0  0  0  0  0  0  0  0  0  0  0
   -2.2807    3.0903   14.4431 C   0  0  0  0  0  0  0  0  0  0  0  0
   -1.7174    1.8097   14.6884 C   0  0  0  0  0  0  0  0  0  0  0  0
   -0.3671    1.6921   15.1182 C   0  0  0  0  0  0  0  0  0  0  0  0
    0.4288    2.8651   15.2845 C   0  0  0  0  0  0  0  0  0  0  0  0
   -0.1413    4.1446   15.0404 C   0  0  0  0  0  0  0  0  0  0  0  0
   -8.2417    3.1714   14.2129 C   0  0  0  0  0  0  0  0  0  0  0  0
   -7.2251    2.8495   15.1405 C   0  0  0  0  0  0  0  0  0  0  0  0
   -4.6741    2.9096   14.9105 C   0  0  0  0  0  0  0  0  0  0  0  0
   -3.6108    3.2140   14.0176 C   0  0  0  0  0  0  0  0  0  0  0  0
   -3.8987    3.6507   12.6952 C   0  0  0  0  0  0  0  0  0  0  0  0
   -5.2475    3.7846   12.2682 C   0  0  0  0  0  0  0  0  0  0  0  0
   -6.3151    3.4909   13.1732 C   0  0  0  0  0  0  0  0  0  0  0  0
   -6.0322    3.0582   14.4817 C   0  0  0  0  0  0  0  0  0  0  0  0
  1  6  1  0  0  0  0
  2  4  1  0  0  0  0
  3  7  1  0  0  0  0
  4  5  1  0  0  0  0
  6  2  1  0  0  0  0
  7  8  1  0  0  0  0
  8  9  1  0  0  0  0
  9 10  1  0  0  0  0
 10 11  1  0  0  0  0
 10 12  1  0  0  0  0
 11 13  1  0  0  0  0
 13 15  1  0  0  0  0
 14 12  1  0  0  0  0
 15 14  1  0  0  0  0
 16 18  2  0  0  0  0
 16 22  1  0  0  0  0
 17 23  1  0  0  0  0
 17 29  1  0  0  0  0
 18 19  1  0  0  0  0
 18 26  1  0  0  0  0
 19 20  2  0  0  0  0
 20  3  1  0  0  0  0
 20 21  1  0  0  0  0
 21  5  1  0  0  0  0
 21 22  2  0  0  0  0
 23 24  2  0  0  0  0
 24 30  1  0  0  0  0
 25 26  2  0  0  0  0
 25 30  1  0  0  0  0
 26 27  1  0  0  0  0
 27 28  2  0  0  0  0
 28 29  1  0  0  0  0
 29 30  2  0  0  0  0
M  END
>  <CHROM.1>
161.56643529,-178.33011517,-164.45582875,-164.61822361,-167.69382231,-163.48199341
174.76688241,-84.06915388,-110.54819652,-142.78672046,-151.93432394,-0.18507787
1.46123924,15.92147568,-0.55619801,-0.29590878,-0.27428379

>  <Name>
1uts_lig

>  <RI>
0

>  <Rbt.Current_Directory>
/home/itssahil/PROJECTS/Mol_Feturizer/New_Systems/rnas/1uts

>  <Rbt.Executable>
rbdock ($Id: //depot/dev/client3/rdock/2013.1/src/exe/rbdock.cxx#4 $)

>  <Rbt.Library>
libRbt.so (2013.1, Build901 2013/11/27)

>  <Rbt.Parameter_File>
/export/apps/rDock/src/rDock_2013.1_src/data/scripts/dock_solv.prm

>  <Rbt.Receptor>
prm/pocket_docking_5.prm

>  <SCORE>
-30.4766

>  <SCORE.INTER>
-26.6642

>  <SCORE.INTER.CONST>
1

>  <SCORE.INTER.POLAR>
-1.40872

>  <SCORE.INTER.ROT>
10

>  <SCORE.INTER.SOLV>
10.878

>  <SCORE.INTER.VDW>
-26.9731

>  <SCORE.INTER.norm>
-0.888806

>  <SCORE.INTRA>
-3.81238

>  <SCORE.INTRA.DIHEDRAL>
-6.99511

>  <SCORE.INTRA.DIHEDRAL.0>
18.0451

>  <SCORE.INTRA.POLAR>
-0.609588

>  <SCORE.INTRA.POLAR.0>
-0.196815

>  <SCORE.INTRA.REPUL>
0

>  <SCORE.INTRA.REPUL.0>
0

>  <SCORE.INTRA.SOLV>
-0.330768

>  <SCORE.INTRA.SOLV.lig_0>
-14.7906

>  <SCORE.INTRA.VDW>
1.92316

>  <SCORE.INTRA.VDW.0>
-0.411701

>  <SCORE.INTRA.norm>
-0.127079

>  <SCORE.RESTR>
0

>  <SCORE.RESTR.CAVITY>
0

>  <SCORE.RESTR.norm>
0

>  <SCORE.SYSTEM>
0

>  <SCORE.SYSTEM.CONST>
0

>  <SCORE.SYSTEM.DIHEDRAL>
0

>  <SCORE.SYSTEM.SOLV>
0

>  <SCORE.SYSTEM.norm>
0

>  <SCORE.heavy>
30

>  <SCORE.norm>
-1.01589

>  <RMSD>
2.544

$$$$
1uts_lig
 OpenBabel11021811413D
libRbt.so/2013.1/901 2013/11/27
 30 33  0  0  0  0  0  0  0  0999 V2000
    6.6030    5.9073   18.5457 N   0  0  0  0  0  0  0  0  0  0  0  0
    5.8394    3.6004   18.1820 C   0  0  0  0  0  0  0  0  0  0  0  0
    2.4389    0.4377   16.5887 C   0  0  0  0  0  0  0  0  0  0  0  0
    4.4343    3.8417   17.6228 C   0  0  0  0  0  0  0  0  0  0  0  0
    4.1376    2.8446   16.6340 O   0  0  0  0  0  0  0  0  0  0  0  0
    6.1643    4.6687   19.2275 C   0  0  0  0  0  0  0  0  0  0  0  0
    1.3081   -0.4318   16.9855 N   0  0  0  0  0  0  0  0  0  0  0  0
    1.7779   -1.8367   17.1146 C   0  0  0  0  0  0  0  0  0  0  0  0
    2.4906   -2.0231   18.4573 C   0  0  0  0  0  0  0  0  0  0  0  0
    2.8249   -3.4530   18.6431 N   0  0  0  0  0  0  0  0  0  0  0  0
    2.9674   -3.7401   20.0996 C   0  0  0  0  0  0  0  0  0  0  0  0
    4.0943   -3.7611   17.9257 C   0  0  0  0  0  0  0  0  0  0  0  0
    3.3185   -5.2237   20.2964 C   0  0  0  0  0  0  0  0  0  0  0  0
    4.4488   -5.2456   18.1252 C   0  0  0  0  0  0  0  0  0  0  0  0
    4.5886   -5.5321   19.5801 N   0  0  0  0  0  0  0  0  0  0  0  0
    0.9344    4.3615   15.3417 C   0  0  0  0  0  0  0  0  0  0  0  0
   -5.2610    3.8519   13.6779 N   0  0  0  0  0  0  0  0  0  0  0  0
    0.0910    3.2261   15.2879 C   0  0  0  0  0  0  0  0  0  0  0  0
    0.5850    1.9575   15.6931 C   0  0  0  0  0  0  0  0  0  0  0  0
    1.9231    1.8249   16.1554 C   0  0  0  0  0  0  0  0  0  0  0  0
    2.7768    2.9680   16.1934 C   0  0  0  0  0  0  0  0  0  0  0  0
    2.2759    4.2360   15.7896 C   0  0  0  0  0  0  0  0  0  0  0  0
   -5.8180    3.9846   14.9702 C   0  0  0  0  0  0  0  0  0  0  0  0
   -4.8194    3.8756   15.9644 C   0  0  0  0  0  0  0  0  0  0  0  0
   -2.2896    3.5257   15.7594 C   0  0  0  0  0  0  0  0  0  0  0  0
   -1.2267    3.3644   14.8296 C   0  0  0  0  0  0  0  0  0  0  0  0
   -1.5013    3.3506   13.4344 C   0  0  0  0  0  0  0  0  0  0  0  0
   -2.8363    3.5001   12.9707 C   0  0  0  0  0  0  0  0  0  0  0  0
   -3.9018    3.6761   13.9081 C   0  0  0  0  0  0  0  0  0  0  0  0
   -3.6321    3.6895   15.2889 C   0  0  0  0  0  0  0  0  0  0  0  0
  1  6  1  0  0  0  0
  2  4  1  0  0  0  0
  3  7  1  0  0  0  0
  4  5  1  0  0  0  0
  6  2  1  0  0  0  0
  7  8  1  0  0  0  0
  8  9  1  0  0  0  0
  9 10  1  0  0  0  0
 10 11  1  0  0  0  0
 10 12  1  0  0  0  0
 11 13  1  0  0  0  0
 13 15  1  0  0  0  0
 14 12  1  0  0  0  0
 15 14  1  0  0  0  0
 16 18  2  0  0  0  0
 16 22  1  0  0  0  0
 17 23  1  0  0  0  0
 17 29  1  0  0  0  0
 18 19  1  0  0  0  0
 18 26  1  0  0  0  0
 19 20  2  0  0  0  0
 20  3  1  0  0  0  0
 20 21  1  0  0  0  0
 21  5  1  0  0  0  0
 21 22  2  0  0  0  0
 23 24  2  0  0  0  0
 24 30  1  0  0  0  0
 25 26  2  0  0  0  0
 25 30  1  0  0  0  0
 26 27  1  0  0  0  0
 27 28  2  0  0  0  0
 28 29  1  0  0  0  0
 29 30  2  0  0  0  0
M  END
>  <CHROM.1>
70.63987040,179.50291675,167.78807768,174.16892351,-80.98348817,79.41237579
173.90271570,-156.17211502,-96.32176182,-23.85725543,-130.24860458,1.32445554
1.27955712,16.74055062,-0.78072097,-0.36022378,-0.22496926

>  <Name>
1uts_lig

>  <RI>
0

>  <Rbt.Current_Directory>
/home/itssahil/PROJECTS/Mol_Feturizer/New_Systems/rnas/1uts

>  <Rbt.Executable>
rbdock ($Id: //depot/dev/client3/rdock/2013.1/src/exe/rbdock.cxx#4 $)

>  <Rbt.Library>
libRbt.so (2013.1, Build901 2013/11/27)

>  <Rbt.Parameter_File>
/export/apps/rDock/src/rDock_2013.1_src/data/scripts/dock_solv.prm

>  <Rbt.Receptor>
prm/pocket_docking_4.prm

>  <SCORE>
-20.6862

>  <SCORE.INTER>
-20.0227

>  <SCORE.INTER.CONST>
1

>  <SCORE.INTER.POLAR>
-0.430207

>  <SCORE.INTER.ROT>
10

>  <SCORE.INTER.SOLV>
8.20336

>  <SCORE.INTER.VDW>
-24.9156

>  <SCORE.INTER.norm>
-0.667423

>  <SCORE.INTRA>
-0.663523

>  <SCORE.INTRA.DIHEDRAL>
-5.27756

>  <SCORE.INTRA.DIHEDRAL.0>
18.0451

>  <SCORE.INTRA.POLAR>
0.196815

>  <SCORE.INTRA.POLAR.0>
-0.196815

>  <SCORE.INTRA.REPUL>
0

>  <SCORE.INTRA.REPUL.0>
0

>  <SCORE.INTRA.SOLV>
-0.591199

>  <SCORE.INTRA.SOLV.lig_0>
-14.7906

>  <SCORE.INTRA.VDW>
1.60168

>  <SCORE.INTRA.VDW.0>
-0.411701

>  <SCORE.INTRA.norm>
-0.0221174

>  <SCORE.RESTR>
0

>  <SCORE.RESTR.CAVITY>
0

>  <SCORE.RESTR.norm>
0

>  <SCORE.SYSTEM>
0

>  <SCORE.SYSTEM.CONST>
0

>  <SCORE.SYSTEM.DIHEDRAL>
0

>  <SCORE.SYSTEM.SOLV>
0

>  <SCORE.SYSTEM.norm>
0

>  <SCORE.heavy>
30

>  <SCORE.norm>
-0.689541

>  <RMSD>
2.561

$$$$
1uts_lig
 OpenBabel11021811413D
libRbt.so/2013.1/901 2013/11/27
 30 33  0  0  0  0  0  0  0  0999 V2000
    0.6141    6.8739   18.4089 N   0  0  0  0  0  0  0  0  0  0  0  0
    1.1135    4.4971   18.7811 C   0  0  0  0  0  0  0  0  0  0  0  0
    0.8933    0.7160   15.8519 C   0  0  0  0  0  0  0  0  0  0  0  0
    0.5333    3.2122   19.3791 C   0  0  0  0  0  0  0  0  0  0  0  0
    0.5826    2.1658   18.3980 O   0  0  0  0  0  0  0  0  0  0  0  0
    0.2839    5.6965   19.2432 C   0  0  0  0  0  0  0  0  0  0  0  0
    2.1888    1.2267   16.3549 N   0  0  0  0  0  0  0  0  0  0  0  0
    3.1408    0.0970   16.5244 C   0  0  0  0  0  0  0  0  0  0  0  0
    2.7022   -0.7774   17.7028 C   0  0  0  0  0  0  0  0  0  0  0  0
    3.4883   -2.0315   17.7049 N   0  0  0  0  0  0  0  0  0  0  0  0
    2.7236   -3.0907   18.4241 C   0  0  0  0  0  0  0  0  0  0  0  0
    4.7990   -1.7921   18.3726 C   0  0  0  0  0  0  0  0  0  0  0  0
    3.5388   -4.3940   18.4317 C   0  0  0  0  0  0  0  0  0  0  0  0
    5.6147   -3.0975   18.3841 C   0  0  0  0  0  0  0  0  0  0  0  0
    4.8493   -4.1555   19.1005 N   0  0  0  0  0  0  0  0  0  0  0  0
   -2.2831    3.6742   16.4631 C   0  0  0  0  0  0  0  0  0  0  0  0
   -5.5586    4.1960   10.8991 N   0  0  0  0  0  0  0  0  0  0  0  0
   -2.1570    3.0124   15.2183 C   0  0  0  0  0  0  0  0  0  0  0  0
   -1.1252    2.0553   15.0269 C   0  0  0  0  0  0  0  0  0  0  0  0
   -0.2203    1.7574   16.0825 C   0  0  0  0  0  0  0  0  0  0  0  0
   -0.3392    2.4378   17.3315 C   0  0  0  0  0  0  0  0  0  0  0  0
   -1.3760    3.3927   17.5185 C   0  0  0  0  0  0  0  0  0  0  0  0
   -4.5485    4.3995    9.9316 C   0  0  0  0  0  0  0  0  0  0  0  0
   -3.2646    4.2395   10.5004 C   0  0  0  0  0  0  0  0  0  0  0  0
   -2.5591    3.6356   12.8882 C   0  0  0  0  0  0  0  0  0  0  0  0
   -3.0520    3.3124   14.1817 C   0  0  0  0  0  0  0  0  0  0  0  0
   -4.4536    3.2871   14.4203 C   0  0  0  0  0  0  0  0  0  0  0  0
   -5.3600    3.5823   13.3662 C   0  0  0  0  0  0  0  0  0  0  0  0
   -4.8614    3.8935   12.0625 C   0  0  0  0  0  0  0  0  0  0  0  0
   -3.4750    3.9196   11.8248 C   0  0  0  0  0  0  0  0  0  0  0  0
  1  6  1  0  0  0  0
  2  4  1  0  0  0  0
  3  7  1  0  0  0  0
  4  5  1  0  0  0  0
  6  2  1  0  0  0  0
  7  8  1  0  0  0  0
  8  9  1  0  0  0  0
  9 10  1  0  0  0  0
 10 11  1  0  0  0  0
 10 12  1  0  0  0  0
 11 13  1  0  0  0  0
 13 15  1  0  0  0  0
 14 12  1  0  0  0  0
 15 14  1  0  0  0  0
 16 18  2  0  0  0  0
 16 22  1  0  0  0  0
 17 23  1  0  0  0  0
 17 29  1  0  0  0  0
 18 19  1  0  0  0  0
 18 26  1  0  0  0  0
 19 20  2  0  0  0  0
 20  3  1  0  0  0  0
 20 21  1  0  0  0  0
 21  5  1  0  0  0  0
 21 22  2  0  0  0  0
 23 24  2  0  0  0  0
 24 30  1  0  0  0  0
 25 26  2  0  0  0  0
 25 30  1  0  0  0  0
 26 27  1  0  0  0  0
 27 28  2  0  0  0  0
 28 29  1  0  0  0  0
 29 30  2  0  0  0  0
M  END
>  <CHROM.1>
178.51930870,140.47437668,162.34630309,-68.71235590,-165.56315197,-70.21446708
169.06745539,-156.06337555,129.40255215,133.85516362,162.84861675,-0.09110662
1.80178895,16.08421471,-2.99246057,0.81623846,-2.52011868

>  <Name>
1uts_lig

>  <RI>
0

>  <Rbt.Current_Directory>
/home/itssahil/PROJECTS/Mol_Feturizer/New_Systems/rnas/1uts

>  <Rbt.Executable>
rbdock ($Id: //depot/dev/client3/rdock/2013.1/src/exe/rbdock.cxx#4 $)

>  <Rbt.Library>
libRbt.so (2013.1, Build901 2013/11/27)

>  <Rbt.Parameter_File>
/export/apps/rDock/src/rDock_2013.1_src/data/scripts/dock_solv.prm

>  <Rbt.Receptor>
prm/pocket_docking_3.prm

>  <SCORE>
-25.5803

>  <SCORE.INTER>
-24.927

>  <SCORE.INTER.CONST>
1

>  <SCORE.INTER.POLAR>
-1.69443

>  <SCORE.INTER.ROT>
10

>  <SCORE.INTER.SOLV>
10.6007

>  <SCORE.INTER.VDW>
-24.7701

>  <SCORE.INTER.norm>
-0.8309

>  <SCORE.INTRA>
-0.666333

>  <SCORE.INTRA.DIHEDRAL>
-6.24141

>  <SCORE.INTRA.DIHEDRAL.0>
18.0451

>  <SCORE.INTRA.POLAR>
-0.56297

>  <SCORE.INTRA.POLAR.0>
-0.196815

>  <SCORE.INTRA.REPUL>
0

>  <SCORE.INTRA.REPUL.0>
0

>  <SCORE.INTRA.SOLV>
-0.213481

>  <SCORE.INTRA.SOLV.lig_0>
-14.7906

>  <SCORE.INTRA.VDW>
4.47521

>  <SCORE.INTRA.VDW.0>
-0.411701

>  <SCORE.INTRA.norm>
-0.0222111

>  <SCORE.RESTR>
0.0129928

>  <SCORE.RESTR.CAVITY>
0.0129928

>  <SCORE.RESTR.norm>
0.000433093

>  <SCORE.SYSTEM>
0

>  <SCORE.SYSTEM.CONST>
0

>  <SCORE.SYSTEM.DIHEDRAL>
0

>  <SCORE.SYSTEM.SOLV>
0

>  <SCORE.SYSTEM.norm>
0

>  <SCORE.heavy>
30

>  <SCORE.norm>
-0.852678

>  <RMSD>
2.563

$$$$
1uts_lig
 OpenBabel11021811413D
libRbt.so/2013.1/901 2013/11/27
 30 33  0  0  0  0  0  0  0  0999 V2000
    5.9635    5.9762   18.7482 N   0  0  0  0  0  0  0  0  0  0  0  0
    6.0540    4.0529   17.2218 C   0  0  0  0  0  0  0  0  0  0  0  0
    2.4689    0.4541   16.4350 C   0  0  0  0  0  0  0  0  0  0  0  0
    4.6075    4.1866   16.7370 C   0  0  0  0  0  0  0  0  0  0  0  0
    4.1148    2.8963   16.3470 O   0  0  0  0  0  0  0  0  0  0  0  0
    6.6191    5.4397   17.5342 C   0  0  0  0  0  0  0  0  0  0  0  0
    3.5443    0.6361   17.4362 N   0  0  0  0  0  0  0  0  0  0  0  0
    4.6333   -0.3447   17.1855 C   0  0  0  0  0  0  0  0  0  0  0  0
    4.6047   -1.4361   18.2595 C   0  0  0  0  0  0  0  0  0  0  0  0
    3.6676   -2.5060   17.8498 N   0  0  0  0  0  0  0  0  0  0  0  0
    2.2886   -2.1482   18.2906 C   0  0  0  0  0  0  0  0  0  0  0  0
    4.0915   -3.7961   18.4637 C   0  0  0  0  0  0  0  0  0  0  0  0
    1.3129   -3.2592   17.8700 C   0  0  0  0  0  0  0  0  0  0  0  0
    3.1130   -4.9087   18.0463 C   0  0  0  0  0  0  0  0  0  0  0  0
    1.7357   -4.5494   18.4848 N   0  0  0  0  0  0  0  0  0  0  0  0
    0.8181    4.3193   15.1900 C   0  0  0  0  0  0  0  0  0  0  0  0
   -5.4497    3.5637   13.8631 N   0  0  0  0  0  0  0  0  0  0  0  0
   -0.0019    3.1657   15.2014 C   0  0  0  0  0  0  0  0  0  0  0  0
    0.5395    1.9163   15.6054 C   0  0  0  0  0  0  0  0  0  0  0  0
    1.9018    1.8210   16.0016 C   0  0  0  0  0  0  0  0  0  0  0  0
    2.7312    2.9823   15.9739 C   0  0  0  0  0  0  0  0  0  0  0  0
    2.1829    4.2309   15.5714 C   0  0  0  0  0  0  0  0  0  0  0  0
   -5.9671    3.2378   15.1374 C   0  0  0  0  0  0  0  0  0  0  0  0
   -4.9241    2.9660   16.0517 C   0  0  0  0  0  0  0  0  0  0  0  0
   -2.3808    3.0120   15.7460 C   0  0  0  0  0  0  0  0  0  0  0  0
   -1.3438    3.2671   14.8080 C   0  0  0  0  0  0  0  0  0  0  0  0
   -1.6697    3.6318   13.4727 C   0  0  0  0  0  0  0  0  0  0  0  0
   -3.0302    3.7432   13.0777 C   0  0  0  0  0  0  0  0  0  0  0  0
   -4.0712    3.4995   14.0274 C   0  0  0  0  0  0  0  0  0  0  0  0
   -3.7507    3.1380   15.3487 C   0  0  0  0  0  0  0  0  0  0  0  0
  1  6  1  0  0  0  0
  2  4  1  0  0  0  0
  3  7  1  0  0  0  0
  4  5  1  0  0  0  0
  6  2  1  0  0  0  0
  7  8  1  0  0  0  0
  8  9  1  0  0  0  0
  9 10  1  0  0  0  0
 10 11  1  0  0  0  0
 10 12  1  0  0  0  0
 11 13  1  0  0  0  0
 13 15  1  0  0  0  0
 14 12  1  0  0  0  0
 15 14  1  0  0  0  0
 16 18  2  0  0  0  0
 16 22  1  0  0  0  0
 17 23  1  0  0  0  0
 17 29  1  0  0  0  0
 18 19  1  0  0  0  0
 18 26  1  0  0  0  0
 19 20  2  0  0  0  0
 20  3  1  0  0  0  0
 20 21  1  0  0  0  0
 21  5  1  0  0  0  0
 21 22  2  0  0  0  0
 23 24  2  0  0  0  0
 24 30  1  0  0  0  0
 25 26  2  0  0  0  0
 25 30  1  0  0  0  0
 26 27  1  0  0  0  0
 27 28  2  0  0  0  0
 28 29  1  0  0  0  0
 29 30  2  0  0  0  0
M  END
>  <CHROM.1>
-26.67824733,175.57871862,-141.35848233,176.12499506,70.16703612,-107.00679392
86.59300732,-86.37375000,-115.77161570,-149.68805560,-157.99323451,1.31063224
1.56520695,16.42455739,-0.54740658,-0.28915669,-0.22825598

>  <Name>
1uts_lig

>  <RI>
0

>  <Rbt.Current_Directory>
/home/itssahil/PROJECTS/Mol_Feturizer/New_Systems/rnas/1uts

>  <Rbt.Executable>
rbdock ($Id: //depot/dev/client3/rdock/2013.1/src/exe/rbdock.cxx#4 $)

>  <Rbt.Library>
libRbt.so (2013.1, Build901 2013/11/27)

>  <Rbt.Parameter_File>
/export/apps/rDock/src/rDock_2013.1_src/data/scripts/dock_solv.prm

>  <Rbt.Receptor>
prm/pocket_docking_4.prm

>  <SCORE>
-28.5853

>  <SCORE.INTER>
-30.0923

>  <SCORE.INTER.CONST>
1

>  <SCORE.INTER.POLAR>
-1.95529

>  <SCORE.INTER.ROT>
10

>  <SCORE.INTER.SOLV>
8.97253

>  <SCORE.INTER.VDW>
-26.8014

>  <SCORE.INTER.norm>
-1.00308

>  <SCORE.INTRA>
1.50702

>  <SCORE.INTRA.DIHEDRAL>
-0.554619

>  <SCORE.INTRA.DIHEDRAL.0>
18.0451

>  <SCORE.INTRA.POLAR>
-0.692763

>  <SCORE.INTRA.POLAR.0>
-0.196815

>  <SCORE.INTRA.REPUL>
0

>  <SCORE.INTRA.REPUL.0>
0

>  <SCORE.INTRA.SOLV>
0.0658829

>  <SCORE.INTRA.SOLV.lig_0>
-14.7906

>  <SCORE.INTRA.VDW>
4.10678

>  <SCORE.INTRA.VDW.0>
-0.411701

>  <SCORE.INTRA.norm>
0.050234

>  <SCORE.RESTR>
0

>  <SCORE.RESTR.CAVITY>
0

>  <SCORE.RESTR.norm>
0

>  <SCORE.SYSTEM>
0

>  <SCORE.SYSTEM.CONST>
0

>  <SCORE.SYSTEM.DIHEDRAL>
0

>  <SCORE.SYSTEM.SOLV>
0

>  <SCORE.SYSTEM.norm>
0

>  <SCORE.heavy>
30

>  <SCORE.norm>
-0.952843

>  <RMSD>
2.564

$$$$
1uts_lig
 OpenBabel11021811413D
libRbt.so/2013.1/901 2013/11/27
 30 33  0  0  0  0  0  0  0  0999 V2000
    3.8263    5.6595   18.3887 N   0  0  0  0  0  0  0  0  0  0  0  0
    3.4680    3.2775   17.9041 C   0  0  0  0  0  0  0  0  0  0  0  0
    1.1946    0.2164   15.9343 C   0  0  0  0  0  0  0  0  0  0  0  0
    3.8033    3.4410   16.4188 C   0  0  0  0  0  0  0  0  0  0  0  0
    3.0695    2.4721   15.6556 O   0  0  0  0  0  0  0  0  0  0  0  0
    4.2717    4.2882   18.7243 C   0  0  0  0  0  0  0  0  0  0  0  0
    2.1217    0.0359   17.0745 N   0  0  0  0  0  0  0  0  0  0  0  0
    1.8151   -1.2409   17.7721 C   0  0  0  0  0  0  0  0  0  0  0  0
    2.7203   -1.3914   18.9983 C   0  0  0  0  0  0  0  0  0  0  0  0
    4.0913   -1.7356   18.5592 N   0  0  0  0  0  0  0  0  0  0  0  0
    4.1319   -3.1691   18.1499 C   0  0  0  0  0  0  0  0  0  0  0  0
    5.0453   -1.4866   19.6767 C   0  0  0  0  0  0  0  0  0  0  0  0
    5.5555   -3.5313   17.6968 C   0  0  0  0  0  0  0  0  0  0  0  0
    6.4707   -1.8525   19.2254 C   0  0  0  0  0  0  0  0  0  0  0  0
    6.5099   -3.2836   18.8145 N   0  0  0  0  0  0  0  0  0  0  0  0
   -0.1915    4.3683   15.7004 C   0  0  0  0  0  0  0  0  0  0  0  0
   -6.6559    4.3334   15.7542 N   0  0  0  0  0  0  0  0  0  0  0  0
   -1.1260    3.3116   15.8160 C   0  0  0  0  0  0  0  0  0  0  0  0
   -0.6701    1.9684   15.8908 C   0  0  0  0  0  0  0  0  0  0  0  0
    0.7222    1.6820   15.8532 C   0  0  0  0  0  0  0  0  0  0  0  0
    1.6620    2.7479   15.7202 C   0  0  0  0  0  0  0  0  0  0  0  0
    1.2000    4.0907   15.6488 C   0  0  0  0  0  0  0  0  0  0  0  0
   -6.9162    3.8098   14.4674 C   0  0  0  0  0  0  0  0  0  0  0  0
   -5.7276    3.3416   13.8626 C   0  0  0  0  0  0  0  0  0  0  0  0
   -3.3198    3.2840   14.7360 C   0  0  0  0  0  0  0  0  0  0  0  0
   -2.4972    3.6016   15.8510 C   0  0  0  0  0  0  0  0  0  0  0  0
   -3.0687    4.2071   17.0038 C   0  0  0  0  0  0  0  0  0  0  0  0
   -4.4604    4.4921   17.0416 C   0  0  0  0  0  0  0  0  0  0  0  0
   -5.2877    4.1587   15.9238 C   0  0  0  0  0  0  0  0  0  0  0  0
   -4.7240    3.5602   14.7822 C   0  0  0  0  0  0  0  0  0  0  0  0
  1  6  1  0  0  0  0
  2  4  1  0  0  0  0
  3  7  1  0  0  0  0
  4  5  1  0  0  0  0
  6  2  1  0  0  0  0
  7  8  1  0  0  0  0
  8  9  1  0  0  0  0
  9 10  1  0  0  0  0
 10 11  1  0  0  0  0
 10 12  1  0  0  0  0
 11 13  1  0  0  0  0
 13 15  1  0  0  0  0
 14 12  1  0  0  0  0
 15 14  1  0  0  0  0
 16 18  2  0  0  0  0
 16 22  1  0  0  0  0
 17 23  1  0  0  0  0
 17 29  1  0  0  0  0
 18 19  1  0  0  0  0
 18 26  1  0  0  0  0
 19 20  2  0  0  0  0
 20  3  1  0  0  0  0
 20 21  1  0  0  0  0
 21  5  1  0  0  0  0
 21 22  2  0  0  0  0
 23 24  2  0  0  0  0
 24 30  1  0  0  0  0
 25 26  2  0  0  0  0
 25 30  1  0  0  0  0
 26 27  1  0  0  0  0
 27 28  2  0  0  0  0
 28 29  1  0  0  0  0
 29 30  2  0  0  0  0
M  END
>  <CHROM.1>
176.94421185,178.76361770,138.43565586,66.46626798,65.82234436,-176.82411915
-74.10981663,-75.75341168,108.42309608,-123.13515799,-139.54735530,0.77280155
1.74512908,16.84553022,-0.51293404,-0.27050407,-0.07505664

>  <Name>
1uts_lig

>  <RI>
0

>  <Rbt.Current_Directory>
/home/itssahil/PROJECTS/Mol_Feturizer/New_Systems/rnas/1uts

>  <Rbt.Executable>
rbdock ($Id: //depot/dev/client3/rdock/2013.1/src/exe/rbdock.cxx#4 $)

>  <Rbt.Library>
libRbt.so (2013.1, Build901 2013/11/27)

>  <Rbt.Parameter_File>
/export/apps/rDock/src/rDock_2013.1_src/data/scripts/dock_solv.prm

>  <Rbt.Receptor>
prm/pocket_docking_3.prm

>  <SCORE>
-18.3019

>  <SCORE.INTER>
-16.4974

>  <SCORE.INTER.CONST>
1

>  <SCORE.INTER.POLAR>
0

>  <SCORE.INTER.ROT>
10

>  <SCORE.INTER.SOLV>
8.56437

>  <SCORE.INTER.VDW>
-24.1197

>  <SCORE.INTER.norm>
-0.549913

>  <SCORE.INTRA>
-1.80849

>  <SCORE.INTRA.DIHEDRAL>
-6.41796

>  <SCORE.INTRA.DIHEDRAL.0>
18.0451

>  <SCORE.INTRA.POLAR>
0.196815

>  <SCORE.INTRA.POLAR.0>
-0.196815

>  <SCORE.INTRA.REPUL>
0

>  <SCORE.INTRA.REPUL.0>
0

>  <SCORE.INTRA.SOLV>
-0.00039934

>  <SCORE.INTRA.SOLV.lig_0>
-14.7906

>  <SCORE.INTRA.VDW>
0.731521

>  <SCORE.INTRA.VDW.0>
-0.411701

>  <SCORE.INTRA.norm>
-0.0602829

>  <SCORE.RESTR>
0.00394615

>  <SCORE.RESTR.CAVITY>
0.00394615

>  <SCORE.RESTR.norm>
0.000131538

>  <SCORE.SYSTEM>
0

>  <SCORE.SYSTEM.CONST>
0

>  <SCORE.SYSTEM.DIHEDRAL>
0

>  <SCORE.SYSTEM.SOLV>
0

>  <SCORE.SYSTEM.norm>
0

>  <SCORE.heavy>
30

>  <SCORE.norm>
-0.610064

>  <RMSD>
2.575

$$$$
1uts_lig
 OpenBabel11021811413D
libRbt.so/2013.1/901 2013/11/27
 30 33  0  0  0  0  0  0  0  0999 V2000
    5.0433    3.5560   20.3209 N   0  0  0  0  0  0  0  0  0  0  0  0
    5.9354    3.4659   18.0333 C   0  0  0  0  0  0  0  0  0  0  0  0
    1.1220    3.1922   19.4980 C   0  0  0  0  0  0  0  0  0  0  0  0
    4.6051    3.3927   17.2782 C   0  0  0  0  0  0  0  0  0  0  0  0
    3.5728    3.9947   18.0730 O   0  0  0  0  0  0  0  0  0  0  0  0
    5.8090    2.7242   19.3653 C   0  0  0  0  0  0  0  0  0  0  0  0
    1.3666    1.7376   19.6251 N   0  0  0  0  0  0  0  0  0  0  0  0
    2.7639    1.4276   19.2221 C   0  0  0  0  0  0  0  0  0  0  0  0
    2.7600    0.6083   17.9282 C   0  0  0  0  0  0  0  0  0  0  0  0
    2.3186   -0.7738   18.2216 N   0  0  0  0  0  0  0  0  0  0  0  0
    3.5154   -1.6406   18.4223 C   0  0  0  0  0  0  0  0  0  0  0  0
    1.4937   -1.2802   17.0885 C   0  0  0  0  0  0  0  0  0  0  0  0
    3.0609   -3.0780   18.7235 C   0  0  0  0  0  0  0  0  0  0  0  0
    1.0411   -2.7208   17.3873 C   0  0  0  0  0  0  0  0  0  0  0  0
    2.2368   -3.5854   17.5900 N   0  0  0  0  0  0  0  0  0  0  0  0
    1.0704    4.3620   15.2738 C   0  0  0  0  0  0  0  0  0  0  0  0
   -4.8106    3.8412   12.8074 N   0  0  0  0  0  0  0  0  0  0  0  0
   -0.1264    3.9656   15.9171 C   0  0  0  0  0  0  0  0  0  0  0  0
   -0.1026    3.5874   17.2860 C   0  0  0  0  0  0  0  0  0  0  0  0
    1.1191    3.6085   18.0132 C   0  0  0  0  0  0  0  0  0  0  0  0
    2.3276    3.9928   17.3583 C   0  0  0  0  0  0  0  0  0  0  0  0
    2.2972    4.3734   15.9886 C   0  0  0  0  0  0  0  0  0  0  0  0
   -4.1815    3.8720   11.5421 C   0  0  0  0  0  0  0  0  0  0  0  0
   -2.7763    3.9401   11.6781 C   0  0  0  0  0  0  0  0  0  0  0  0
   -1.3010    3.9793   13.7724 C   0  0  0  0  0  0  0  0  0  0  0  0
   -1.3269    3.9459   15.1932 C   0  0  0  0  0  0  0  0  0  0  0  0
   -2.5716    3.8856   15.8783 C   0  0  0  0  0  0  0  0  0  0  0  0
   -3.7874    3.8563   15.1431 C   0  0  0  0  0  0  0  0  0  0  0  0
   -3.7576    3.8759   13.7135 C   0  0  0  0  0  0  0  0  0  0  0  0
   -2.5271    3.9362   13.0341 C   0  0  0  0  0  0  0  0  0  0  0  0
  1  6  1  0  0  0  0
  2  4  1  0  0  0  0
  3  7  1  0  0  0  0
  4  5  1  0  0  0  0
  6  2  1  0  0  0  0
  7  8  1  0  0  0  0
  8  9  1  0  0  0  0
  9 10  1  0  0  0  0
 10 11  1  0  0  0  0
 10 12  1  0  0  0  0
 11 13  1  0  0  0  0
 13 15  1  0  0  0  0
 14 12  1  0  0  0  0
 15 14  1  0  0  0  0
 16 18  2  0  0  0  0
 16 22  1  0  0  0  0
 17 23  1  0  0  0  0
 17 29  1  0  0  0  0
 18 19  1  0  0  0  0
 18 26  1  0  0  0  0
 19 20  2  0  0  0  0
 20  3  1  0  0  0  0
 20 21  1  0  0  0  0
 21  5  1  0  0  0  0
 21 22  2  0  0  0  0
 23 24  2  0  0  0  0
 24 30  1  0  0  0  0
 25 26  2  0  0  0  0
 25 30  1  0  0  0  0
 26 27  1  0  0  0  0
 27 28  2  0  0  0  0
 28 29  1  0  0  0  0
 29 30  2  0  0  0  0
M  END
>  <CHROM.1>
175.75044856,59.65226529,68.72237910,177.34521819,-75.98149501,-112.47609032
-73.51720848,-95.50206072,16.28123437,90.04917878,135.24947828,1.00042973
2.23525514,16.76988800,-0.44778217,-0.61821694,-0.12700332

>  <Name>
1uts_lig

>  <RI>
0

>  <Rbt.Current_Directory>
/home/itssahil/PROJECTS/Mol_Feturizer/New_Systems/rnas/1uts

>  <Rbt.Executable>
rbdock ($Id: //depot/dev/client3/rdock/2013.1/src/exe/rbdock.cxx#4 $)

>  <Rbt.Library>
libRbt.so (2013.1, Build901 2013/11/27)

>  <Rbt.Parameter_File>
/export/apps/rDock/src/rDock_2013.1_src/data/scripts/dock_solv.prm

>  <Rbt.Receptor>
prm/pocket_docking_3.prm

>  <SCORE>
-19.3828

>  <SCORE.INTER>
-16.3299

>  <SCORE.INTER.CONST>
1

>  <SCORE.INTER.POLAR>
-0.8

>  <SCORE.INTER.ROT>
10

>  <SCORE.INTER.SOLV>
7.60988

>  <SCORE.INTER.VDW>
-21.0232

>  <SCORE.INTER.norm>
-0.54433

>  <SCORE.INTRA>
-3.06555

>  <SCORE.INTRA.DIHEDRAL>
-6.90821

>  <SCORE.INTRA.DIHEDRAL.0>
18.0451

>  <SCORE.INTRA.POLAR>
-0.429307

>  <SCORE.INTRA.POLAR.0>
-0.196815

>  <SCORE.INTRA.REPUL>
0

>  <SCORE.INTRA.REPUL.0>
0

>  <SCORE.INTRA.SOLV>
0.64707

>  <SCORE.INTRA.SOLV.lig_0>
-14.7906

>  <SCORE.INTRA.VDW>
1.52466

>  <SCORE.INTRA.VDW.0>
-0.411701

>  <SCORE.INTRA.norm>
-0.102185

>  <SCORE.RESTR>
0.0126877

>  <SCORE.RESTR.CAVITY>
0.0126877

>  <SCORE.RESTR.norm>
0.000422922

>  <SCORE.SYSTEM>
0

>  <SCORE.SYSTEM.CONST>
0

>  <SCORE.SYSTEM.DIHEDRAL>
0

>  <SCORE.SYSTEM.SOLV>
0

>  <SCORE.SYSTEM.norm>
0

>  <SCORE.heavy>
30

>  <SCORE.norm>
-0.646092

>  <RMSD>
2.614

$$$$
1uts_lig
 OpenBabel11021811413D
libRbt.so/2013.1/901 2013/11/27
 30 33  0  0  0  0  0  0  0  0999 V2000
    6.0596    2.4895   17.6093 N   0  0  0  0  0  0  0  0  0  0  0  0
    4.2913    3.5088   16.2412 C   0  0  0  0  0  0  0  0  0  0  0  0
    1.0258    0.2539   16.4527 C   0  0  0  0  0  0  0  0  0  0  0  0
    3.3730    3.6960   17.4523 C   0  0  0  0  0  0  0  0  0  0  0  0
    2.4539    2.5962   17.5275 O   0  0  0  0  0  0  0  0  0  0  0  0
    5.1663    2.2713   16.4492 C   0  0  0  0  0  0  0  0  0  0  0  0
    2.4869    0.1580   16.6720 N   0  0  0  0  0  0  0  0  0  0  0  0
    2.7950   -1.0585   17.4695 C   0  0  0  0  0  0  0  0  0  0  0  0
    4.2936   -1.1074   17.7816 C   0  0  0  0  0  0  0  0  0  0  0  0
    4.5812   -2.2830   18.6337 N   0  0  0  0  0  0  0  0  0  0  0  0
    4.2494   -3.5282   17.8832 C   0  0  0  0  0  0  0  0  0  0  0  0
    3.7728   -2.1976   19.8828 C   0  0  0  0  0  0  0  0  0  0  0  0
    4.5432   -4.7514   18.7666 C   0  0  0  0  0  0  0  0  0  0  0  0
    4.0635   -3.4239   20.7666 C   0  0  0  0  0  0  0  0  0  0  0  0
    3.7341   -4.6671   20.0155 N   0  0  0  0  0  0  0  0  0  0  0  0
   -0.1282    4.3523   15.4107 C   0  0  0  0  0  0  0  0  0  0  0  0
   -4.9309    4.1588   11.1193 N   0  0  0  0  0  0  0  0  0  0  0  0
   -0.8290    3.2535   14.8586 C   0  0  0  0  0  0  0  0  0  0  0  0
   -0.4495    1.9280   15.2000 C   0  0  0  0  0  0  0  0  0  0  0  0
    0.6300    1.7012   16.0973 C   0  0  0  0  0  0  0  0  0  0  0  0
    1.3458    2.8104   16.6402 C   0  0  0  0  0  0  0  0  0  0  0  0
    0.9595    4.1350   16.2972 C   0  0  0  0  0  0  0  0  0  0  0  0
   -4.1010    4.3405    9.9898 C   0  0  0  0  0  0  0  0  0  0  0  0
   -2.7365    4.2361   10.3434 C   0  0  0  0  0  0  0  0  0  0  0  0
   -1.6288    3.7592   12.6037 C   0  0  0  0  0  0  0  0  0  0  0  0
   -1.8914    3.4849   13.9735 C   0  0  0  0  0  0  0  0  0  0  0  0
   -3.2331    3.4388   14.4426 C   0  0  0  0  0  0  0  0  0  0  0  0
   -4.3094    3.6643   13.5425 C   0  0  0  0  0  0  0  0  0  0  0  0
   -4.0425    3.9263   12.1623 C   0  0  0  0  0  0  0  0  0  0  0  0
   -2.7157    3.9729   11.6965 C   0  0  0  0  0  0  0  0  0  0  0  0
  1  6  1  0  0  0  0
  2  4  1  0  0  0  0
  3  7  1  0  0  0  0
  4  5  1  0  0  0  0
  6  2  1  0  0  0  0
  7  8  1  0  0  0  0
  8  9  1  0  0  0  0
  9 10  1  0  0  0  0
 10 11  1  0  0  0  0
 10 12  1  0  0  0  0
 11 13  1  0  0  0  0
 13 15  1  0  0  0  0
 14 12  1  0  0  0  0
 15 14  1  0  0  0  0
 16 18  2  0  0  0  0
 16 22  1  0  0  0  0
 17 23  1  0  0  0  0
 17 29  1  0  0  0  0
 18 19  1  0  0  0  0
 18 26  1  0  0  0  0
 19 20  2  0  0  0  0
 20  3  1  0  0  0  0
 20 21  1  0  0  0  0
 21  5  1  0  0  0  0
 21 22  2  0  0  0  0
 23 24  2  0  0  0  0
 24 30  1  0  0  0  0
 25 26  2  0  0  0  0
 25 30  1  0  0  0  0
 26 27  1  0  0  0  0
 27 28  2  0  0  0  0
 28 29  1  0  0  0  0
 29 30  2  0  0  0  0
M  END
>  <CHROM.1>
-50.25105861,-65.29043200,159.63408599,-82.00771777,-64.18276516,-176.03338251
177.11092718,63.04148218,81.44128764,146.62389695,153.03222862,1.14440005
1.38430556,15.93499185,-0.74610316,-0.51667029,-0.32569522

>  <Name>
1uts_lig

>  <RI>
0

>  <Rbt.Current_Directory>
/home/itssahil/PROJECTS/Mol_Feturizer/New_Systems/rnas/1uts

>  <Rbt.Executable>
rbdock ($Id: //depot/dev/client3/rdock/2013.1/src/exe/rbdock.cxx#4 $)

>  <Rbt.Library>
libRbt.so (2013.1, Build901 2013/11/27)

>  <Rbt.Parameter_File>
/export/apps/rDock/src/rDock_2013.1_src/data/scripts/dock_solv.prm

>  <Rbt.Receptor>
prm/pocket_docking_3.prm

>  <SCORE>
-20.4204

>  <SCORE.INTER>
-18.8718

>  <SCORE.INTER.CONST>
1

>  <SCORE.INTER.POLAR>
0

>  <SCORE.INTER.ROT>
10

>  <SCORE.INTER.SOLV>
9.30527

>  <SCORE.INTER.VDW>
-25.9496

>  <SCORE.INTER.norm>
-0.62906

>  <SCORE.INTRA>
-1.54856

>  <SCORE.INTRA.DIHEDRAL>
-8.10346

>  <SCORE.INTRA.DIHEDRAL.0>
18.0451

>  <SCORE.INTRA.POLAR>
-0.683981

>  <SCORE.INTRA.POLAR.0>
-0.196815

>  <SCORE.INTRA.REPUL>
0

>  <SCORE.INTRA.REPUL.0>
0

>  <SCORE.INTRA.SOLV>
0.288439

>  <SCORE.INTRA.SOLV.lig_0>
-14.7906

>  <SCORE.INTRA.VDW>
4.68448

>  <SCORE.INTRA.VDW.0>
-0.411701

>  <SCORE.INTRA.norm>
-0.0516188

>  <SCORE.RESTR>
0

>  <SCORE.RESTR.CAVITY>
0

>  <SCORE.RESTR.norm>
0

>  <SCORE.SYSTEM>
0

>  <SCORE.SYSTEM.CONST>
0

>  <SCORE.SYSTEM.DIHEDRAL>
0

>  <SCORE.SYSTEM.SOLV>
0

>  <SCORE.SYSTEM.norm>
0

>  <SCORE.heavy>
30

>  <SCORE.norm>
-0.680679

>  <RMSD>
2.633

$$$$
1uts_lig
 OpenBabel11021811413D
libRbt.so/2013.1/901 2013/11/27
 30 33  0  0  0  0  0  0  0  0999 V2000
    1.9758    7.1248   19.5767 N   0  0  0  0  0  0  0  0  0  0  0  0
    0.7812    5.1917   20.5112 C   0  0  0  0  0  0  0  0  0  0  0  0
    2.6359    2.9682   16.2185 C   0  0  0  0  0  0  0  0  0  0  0  0
    1.6439    4.1574   19.7824 C   0  0  0  0  0  0  0  0  0  0  0  0
    2.0935    4.7064   18.5349 O   0  0  0  0  0  0  0  0  0  0  0  0
    1.6255    6.4259   20.8338 C   0  0  0  0  0  0  0  0  0  0  0  0
    3.7523    3.7453   16.8033 N   0  0  0  0  0  0  0  0  0  0  0  0
    4.7802    2.8164   17.3432 C   0  0  0  0  0  0  0  0  0  0  0  0
    5.6734    2.3142   16.2050 C   0  0  0  0  0  0  0  0  0  0  0  0
    6.3476    1.0645   16.6227 N   0  0  0  0  0  0  0  0  0  0  0  0
    7.4133    0.7264   15.6359 C   0  0  0  0  0  0  0  0  0  0  0  0
    5.3448   -0.0351   16.7023 C   0  0  0  0  0  0  0  0  0  0  0  0
    8.1133   -0.5734   16.0644 C   0  0  0  0  0  0  0  0  0  0  0  0
    6.0453   -1.3381   17.1278 C   0  0  0  0  0  0  0  0  0  0  0  0
    7.1111   -1.6738   16.1430 N   0  0  0  0  0  0  0  0  0  0  0  0
   -1.1602    5.1132   16.6697 C   0  0  0  0  0  0  0  0  0  0  0  0
   -4.7427    3.8714   11.4190 N   0  0  0  0  0  0  0  0  0  0  0  0
   -0.9321    4.3019   15.5325 C   0  0  0  0  0  0  0  0  0  0  0  0
    0.3004    3.6099   15.3924 C   0  0  0  0  0  0  0  0  0  0  0  0
    1.3047    3.7271   16.3921 C   0  0  0  0  0  0  0  0  0  0  0  0
    1.0790    4.5586   17.5300 C   0  0  0  0  0  0  0  0  0  0  0  0
   -0.1579    5.2465   17.6665 C   0  0  0  0  0  0  0  0  0  0  0  0
   -3.8805    4.1961   10.3472 C   0  0  0  0  0  0  0  0  0  0  0  0
   -2.5762    4.4752   10.8147 C   0  0  0  0  0  0  0  0  0  0  0  0
   -1.6100    4.4430   13.1873 C   0  0  0  0  0  0  0  0  0  0  0  0
   -1.9264    4.1924   14.5503 C   0  0  0  0  0  0  0  0  0  0  0  0
   -3.2508    3.8240   14.9143 C   0  0  0  0  0  0  0  0  0  0  0  0
   -4.2556    3.7044   13.9165 C   0  0  0  0  0  0  0  0  0  0  0  0
   -3.9308    3.9436   12.5445 C   0  0  0  0  0  0  0  0  0  0  0  0
   -2.6213    4.3087   12.1825 C   0  0  0  0  0  0  0  0  0  0  0  0
  1  6  1  0  0  0  0
  2  4  1  0  0  0  0
  3  7  1  0  0  0  0
  4  5  1  0  0  0  0
  6  2  1  0  0  0  0
  7  8  1  0  0  0  0
  8  9  1  0  0  0  0
  9 10  1  0  0  0  0
 10 11  1  0  0  0  0
 10 12  1  0  0  0  0
 11 13  1  0  0  0  0
 13 15  1  0  0  0  0
 14 12  1  0  0  0  0
 15 14  1  0  0  0  0
 16 18  2  0  0  0  0
 16 22  1  0  0  0  0
 17 23  1  0  0  0  0
 17 29  1  0  0  0  0
 18 19  1  0  0  0  0
 18 26  1  0  0  0  0
 19 20  2  0  0  0  0
 20  3  1  0  0  0  0
 20 21  1  0  0  0  0
 21  5  1  0  0  0  0
 21 22  2  0  0  0  0
 23 24  2  0  0  0  0
 24 30  1  0  0  0  0
 25 26  2  0  0  0  0
 25 30  1  0  0  0  0
 26 27  1  0  0  0  0
 27 28  2  0  0  0  0
 28 29  1  0  0  0  0
 29 30  2  0  0  0  0
M  END
>  <CHROM.1>
71.69168307,-62.59523367,147.69151946,-82.80812841,68.22281391,80.92466517
-159.68665458,-168.75762319,127.49000748,146.68497051,-115.14493671,1.41577928
3.33719293,16.00781915,0.13355324,-0.49881183,0.99434909

>  <Name>
1uts_lig

>  <RI>
0

>  <Rbt.Current_Directory>
/home/itssahil/PROJECTS/Mol_Feturizer/New_Systems/rnas/1uts

>  <Rbt.Executable>
rbdock ($Id: //depot/dev/client3/rdock/2013.1/src/exe/rbdock.cxx#4 $)

>  <Rbt.Library>
libRbt.so (2013.1, Build901 2013/11/27)

>  <Rbt.Parameter_File>
/export/apps/rDock/src/rDock_2013.1_src/data/scripts/dock_solv.prm

>  <Rbt.Receptor>
prm/pocket_docking_5.prm

>  <SCORE>
-27.9669

>  <SCORE.INTER>
-24.0806

>  <SCORE.INTER.CONST>
1

>  <SCORE.INTER.POLAR>
-0.741595

>  <SCORE.INTER.ROT>
10

>  <SCORE.INTER.SOLV>
10.0447

>  <SCORE.INTER.VDW>
-27.1966

>  <SCORE.INTER.norm>
-0.802686

>  <SCORE.INTRA>
-3.88628

>  <SCORE.INTRA.DIHEDRAL>
-2.79165

>  <SCORE.INTRA.DIHEDRAL.0>
18.0451

>  <SCORE.INTRA.POLAR>
-1.45605

>  <SCORE.INTRA.POLAR.0>
-0.196815

>  <SCORE.INTRA.REPUL>
0

>  <SCORE.INTRA.REPUL.0>
0

>  <SCORE.INTRA.SOLV>
0.486683

>  <SCORE.INTRA.SOLV.lig_0>
-14.7906

>  <SCORE.INTRA.VDW>
2.21678

>  <SCORE.INTRA.VDW.0>
-0.411701

>  <SCORE.INTRA.norm>
-0.129543

>  <SCORE.RESTR>
0

>  <SCORE.RESTR.CAVITY>
0

>  <SCORE.RESTR.norm>
0

>  <SCORE.SYSTEM>
0

>  <SCORE.SYSTEM.CONST>
0

>  <SCORE.SYSTEM.DIHEDRAL>
0

>  <SCORE.SYSTEM.SOLV>
0

>  <SCORE.SYSTEM.norm>
0

>  <SCORE.heavy>
30

>  <SCORE.norm>
-0.932228

>  <RMSD>
2.680

$$$$
1uts_lig
 OpenBabel11021811413D
libRbt.so/2013.1/901 2013/11/27
 30 33  0  0  0  0  0  0  0  0999 V2000
    7.1255    4.4409   18.9647 N   0  0  0  0  0  0  0  0  0  0  0  0
    5.1305    3.2692   18.1374 C   0  0  0  0  0  0  0  0  0  0  0  0
    1.1620    0.1630   17.0606 C   0  0  0  0  0  0  0  0  0  0  0  0
    3.7001    3.4800   17.6327 C   0  0  0  0  0  0  0  0  0  0  0  0
    3.2241    2.2673   17.0305 O   0  0  0  0  0  0  0  0  0  0  0  0
    5.6792    4.5880   18.6850 C   0  0  0  0  0  0  0  0  0  0  0  0
    2.0102    0.3459   18.2603 N   0  0  0  0  0  0  0  0  0  0  0  0
    2.2061   -0.9623   18.9393 C   0  0  0  0  0  0  0  0  0  0  0  0
    2.8723   -1.9504   17.9774 C   0  0  0  0  0  0  0  0  0  0  0  0
    4.3168   -1.6432   17.8778 N   0  0  0  0  0  0  0  0  0  0  0  0
    4.5423   -0.6983   16.7464 C   0  0  0  0  0  0  0  0  0  0  0  0
    5.0768   -2.9064   17.6599 C   0  0  0  0  0  0  0  0  0  0  0  0
    6.0423   -0.3798   16.6375 C   0  0  0  0  0  0  0  0  0  0  0  0
    6.5786   -2.5883   17.5469 C   0  0  0  0  0  0  0  0  0  0  0  0
    6.8028   -1.6427   16.4182 N   0  0  0  0  0  0  0  0  0  0  0  0
    0.5593    3.9707   14.9742 C   0  0  0  0  0  0  0  0  0  0  0  0
   -5.0982    3.9335   11.9319 N   0  0  0  0  0  0  0  0  0  0  0  0
   -0.4496    2.9782   14.9495 C   0  0  0  0  0  0  0  0  0  0  0  0
   -0.2476    1.7464   15.6273 C   0  0  0  0  0  0  0  0  0  0  0  0
    0.9635    1.5082   16.3332 C   0  0  0  0  0  0  0  0  0  0  0  0
    1.9861    2.5038   16.3432 C   0  0  0  0  0  0  0  0  0  0  0  0
    1.7771    3.7362   15.6655 C   0  0  0  0  0  0  0  0  0  0  0  0
   -4.4579    4.1678   10.6938 C   0  0  0  0  0  0  0  0  0  0  0  0
   -3.0537    4.0764   10.8259 C   0  0  0  0  0  0  0  0  0  0  0  0
   -1.5993    3.5444   12.8669 C   0  0  0  0  0  0  0  0  0  0  0  0
   -1.6405    3.2198   14.2501 C   0  0  0  0  0  0  0  0  0  0  0  0
   -2.8913    3.1337   14.9211 C   0  0  0  0  0  0  0  0  0  0  0  0
   -4.0982    3.3697   14.2089 C   0  0  0  0  0  0  0  0  0  0  0  0
   -4.0543    3.6824   12.8142 C   0  0  0  0  0  0  0  0  0  0  0  0
   -2.8177    3.7686   12.1488 C   0  0  0  0  0  0  0  0  0  0  0  0
  1  6  1  0  0  0  0
  2  4  1  0  0  0  0
  3  7  1  0  0  0  0
  4  5  1  0  0  0  0
  6  2  1  0  0  0  0
  7  8  1  0  0  0  0
  8  9  1  0  0  0  0
  9 10  1  0  0  0  0
 10 11  1  0  0  0  0
 10 12  1  0  0  0  0
 11 13  1  0  0  0  0
 13 15  1  0  0  0  0
 14 12  1  0  0  0  0
 15 14  1  0  0  0  0
 16 18  2  0  0  0  0
 16 22  1  0  0  0  0
 17 23  1  0  0  0  0
 17 29  1  0  0  0  0
 18 19  1  0  0  0  0
 18 26  1  0  0  0  0
 19 20  2  0  0  0  0
 20  3  1  0  0  0  0
 20 21  1  0  0  0  0
 21  5  1  0  0  0  0
 21 22  2  0  0  0  0
 23 24  2  0  0  0  0
 24 30  1  0  0  0  0
 25 26  2  0  0  0  0
 25 30  1  0  0  0  0
 26 27  1  0  0  0  0
 27 28  2  0  0  0  0
 28 29  1  0  0  0  0
 29 30  2  0  0  0  0
M  END
>  <CHROM.1>
56.98631991,175.78138385,-179.26455874,-169.81852322,-170.76058208,59.22548865
77.15828424,-91.52302869,56.97347387,-148.78756981,-143.97686490,1.58488534
1.76943313,15.92536059,-0.36848106,-0.52648317,-0.02677701

>  <Name>
1uts_lig

>  <RI>
0

>  <Rbt.Current_Directory>
/home/itssahil/PROJECTS/Mol_Feturizer/New_Systems/rnas/1uts

>  <Rbt.Executable>
rbdock ($Id: //depot/dev/client3/rdock/2013.1/src/exe/rbdock.cxx#4 $)

>  <Rbt.Library>
libRbt.so (2013.1, Build901 2013/11/27)

>  <Rbt.Parameter_File>
/export/apps/rDock/src/rDock_2013.1_src/data/scripts/dock_solv.prm

>  <Rbt.Receptor>
prm/pocket_docking_4.prm

>  <SCORE>
-21.7859

>  <SCORE.INTER>
-18.7809

>  <SCORE.INTER.CONST>
1

>  <SCORE.INTER.POLAR>
-0.579442

>  <SCORE.INTER.ROT>
10

>  <SCORE.INTER.SOLV>
9.88022

>  <SCORE.INTER.VDW>
-24.1492

>  <SCORE.INTER.norm>
-0.626031

>  <SCORE.INTRA>
-3.00498

>  <SCORE.INTRA.DIHEDRAL>
-8.33127

>  <SCORE.INTRA.DIHEDRAL.0>
18.0451

>  <SCORE.INTRA.POLAR>
-0.333968

>  <SCORE.INTRA.POLAR.0>
-0.196815

>  <SCORE.INTRA.REPUL>
0

>  <SCORE.INTRA.REPUL.0>
0

>  <SCORE.INTRA.SOLV>
0.112662

>  <SCORE.INTRA.SOLV.lig_0>
-14.7906

>  <SCORE.INTRA.VDW>
2.23981

>  <SCORE.INTRA.VDW.0>
-0.411701

>  <SCORE.INTRA.norm>
-0.100166

>  <SCORE.RESTR>
0

>  <SCORE.RESTR.CAVITY>
0

>  <SCORE.RESTR.norm>
0

>  <SCORE.SYSTEM>
0

>  <SCORE.SYSTEM.CONST>
0

>  <SCORE.SYSTEM.DIHEDRAL>
0

>  <SCORE.SYSTEM.SOLV>
0

>  <SCORE.SYSTEM.norm>
0

>  <SCORE.heavy>
30

>  <SCORE.norm>
-0.726197

>  <RMSD>
2.696

$$$$
1uts_lig
 OpenBabel11021811413D
libRbt.so/2013.1/901 2013/11/27
 30 33  0  0  0  0  0  0  0  0999 V2000
    2.9875    4.4437   20.9715 N   0  0  0  0  0  0  0  0  0  0  0  0
    2.8250    6.7880   20.2536 C   0  0  0  0  0  0  0  0  0  0  0  0
    2.7536    4.2200   16.0083 C   0  0  0  0  0  0  0  0  0  0  0  0
    1.7722    6.5727   19.1625 C   0  0  0  0  0  0  0  0  0  0  0  0
    1.8978    5.2437   18.6352 O   0  0  0  0  0  0  0  0  0  0  0  0
    2.5840    5.8025   21.3986 C   0  0  0  0  0  0  0  0  0  0  0  0
    3.0382    2.7760   16.1696 N   0  0  0  0  0  0  0  0  0  0  0  0
    4.4513    2.5882   16.5925 C   0  0  0  0  0  0  0  0  0  0  0  0
    4.5996    2.9423   18.0751 C   0  0  0  0  0  0  0  0  0  0  0  0
    5.9152    2.4728   18.5645 N   0  0  0  0  0  0  0  0  0  0  0  0
    5.8763    0.9921   18.7378 C   0  0  0  0  0  0  0  0  0  0  0  0
    6.2274    3.1400   19.8600 C   0  0  0  0  0  0  0  0  0  0  0  0
    7.2401    0.5012   19.2497 C   0  0  0  0  0  0  0  0  0  0  0  0
    7.5912    2.6463   20.3755 C   0  0  0  0  0  0  0  0  0  0  0  0
    7.5523    1.1672   20.5460 N   0  0  0  0  0  0  0  0  0  0  0  0
   -1.4531    5.0574   16.9124 C   0  0  0  0  0  0  0  0  0  0  0  0
   -4.8550    3.8019   11.5359 N   0  0  0  0  0  0  0  0  0  0  0  0
   -1.0812    4.5833   15.6317 C   0  0  0  0  0  0  0  0  0  0  0  0
    0.2837    4.3144   15.3452 C   0  0  0  0  0  0  0  0  0  0  0  0
    1.2776    4.5169   16.3418 C   0  0  0  0  0  0  0  0  0  0  0  0
    0.9024    5.0105   17.6274 C   0  0  0  0  0  0  0  0  0  0  0  0
   -0.4659    5.2750   17.9094 C   0  0  0  0  0  0  0  0  0  0  0  0
   -3.9977    4.0922   10.4504 C   0  0  0  0  0  0  0  0  0  0  0  0
   -2.7051    4.4378   10.9059 C   0  0  0  0  0  0  0  0  0  0  0  0
   -1.7508    4.5702   13.2799 C   0  0  0  0  0  0  0  0  0  0  0  0
   -2.0665    4.3874   14.6537 C   0  0  0  0  0  0  0  0  0  0  0  0
   -3.3807    3.9990   15.0335 C   0  0  0  0  0  0  0  0  0  0  0  0
   -4.3761    3.7918   14.0406 C   0  0  0  0  0  0  0  0  0  0  0  0
   -4.0517    3.9630   12.6584 C   0  0  0  0  0  0  0  0  0  0  0  0
   -2.7522    4.3478   12.2808 C   0  0  0  0  0  0  0  0  0  0  0  0
  1  6  1  0  0  0  0
  2  4  1  0  0  0  0
  3  7  1  0  0  0  0
  4  5  1  0  0  0  0
  6  2  1  0  0  0  0
  7  8  1  0  0  0  0
  8  9  1  0  0  0  0
  9 10  1  0  0  0  0
 10 11  1  0  0  0  0
 10 12  1  0  0  0  0
 11 13  1  0  0  0  0
 13 15  1  0  0  0  0
 14 12  1  0  0  0  0
 15 14  1  0  0  0  0
 16 18  2  0  0  0  0
 16 22  1  0  0  0  0
 17 23  1  0  0  0  0
 17 29  1  0  0  0  0
 18 19  1  0  0  0  0
 18 26  1  0  0  0  0
 19 20  2  0  0  0  0
 20  3  1  0  0  0  0
 20 21  1  0  0  0  0
 21  5  1  0  0  0  0
 21 22  2  0  0  0  0
 23 24  2  0  0  0  0
 24 30  1  0  0  0  0
 25 26  2  0  0  0  0
 25 30  1  0  0  0  0
 26 27  1  0  0  0  0
 27 28  2  0  0  0  0
 28 29  1  0  0  0  0
 29 30  2  0  0  0  0
M  END
>  <CHROM.1>
70.32221645,-61.90706222,-148.82442789,178.88267538,73.09869910,75.93759891
167.46075395,-75.05767775,148.62656595,-83.05547096,128.03123969,1.42074648
3.90407116,16.78932635,0.44266174,-0.50588329,0.98432152

>  <Name>
1uts_lig

>  <RI>
0

>  <Rbt.Current_Directory>
/home/itssahil/PROJECTS/Mol_Feturizer/New_Systems/rnas/1uts

>  <Rbt.Executable>
rbdock ($Id: //depot/dev/client3/rdock/2013.1/src/exe/rbdock.cxx#4 $)

>  <Rbt.Library>
libRbt.so (2013.1, Build901 2013/11/27)

>  <Rbt.Parameter_File>
/export/apps/rDock/src/rDock_2013.1_src/data/scripts/dock_solv.prm

>  <Rbt.Receptor>
prm/pocket_docking_4.prm

>  <SCORE>
-23.4068

>  <SCORE.INTER>
-18.8778

>  <SCORE.INTER.CONST>
1

>  <SCORE.INTER.POLAR>
0

>  <SCORE.INTER.ROT>
10

>  <SCORE.INTER.SOLV>
9.64438

>  <SCORE.INTER.VDW>
-26.0667

>  <SCORE.INTER.norm>
-0.629261

>  <SCORE.INTRA>
-4.52897

>  <SCORE.INTRA.DIHEDRAL>
-8.52983

>  <SCORE.INTRA.DIHEDRAL.0>
18.0451

>  <SCORE.INTRA.POLAR>
-0.505278

>  <SCORE.INTRA.POLAR.0>
-0.196815

>  <SCORE.INTRA.REPUL>
0

>  <SCORE.INTRA.REPUL.0>
0

>  <SCORE.INTRA.SOLV>
0.264559

>  <SCORE.INTRA.SOLV.lig_0>
-14.7906

>  <SCORE.INTRA.VDW>
1.32161

>  <SCORE.INTRA.VDW.0>
-0.411701

>  <SCORE.INTRA.norm>
-0.150966

>  <SCORE.RESTR>
0

>  <SCORE.RESTR.CAVITY>
0

>  <SCORE.RESTR.norm>
0

>  <SCORE.SYSTEM>
0

>  <SCORE.SYSTEM.CONST>
0

>  <SCORE.SYSTEM.DIHEDRAL>
0

>  <SCORE.SYSTEM.SOLV>
0

>  <SCORE.SYSTEM.norm>
0

>  <SCORE.heavy>
30

>  <SCORE.norm>
-0.780227

>  <RMSD>
2.698

$$$$
1uts_lig
 OpenBabel11021811413D
libRbt.so/2013.1/901 2013/11/27
 30 33  0  0  0  0  0  0  0  0999 V2000
    6.9005    5.4522   15.6863 N   0  0  0  0  0  0  0  0  0  0  0  0
    4.7899    4.2128   15.9017 C   0  0  0  0  0  0  0  0  0  0  0  0
    1.0207    0.6284   16.0201 C   0  0  0  0  0  0  0  0  0  0  0  0
    3.2653    4.3487   15.8539 C   0  0  0  0  0  0  0  0  0  0  0  0
    2.6753    3.0475   15.7176 O   0  0  0  0  0  0  0  0  0  0  0  0
    5.4307    5.5972   15.7878 C   0  0  0  0  0  0  0  0  0  0  0  0
    2.2484    0.7816   16.8332 N   0  0  0  0  0  0  0  0  0  0  0  0
    3.0090   -0.4961   16.8375 C   0  0  0  0  0  0  0  0  0  0  0  0
    2.4337   -1.4376   17.8996 C   0  0  0  0  0  0  0  0  0  0  0  0
    3.1344   -2.7398   17.8352 N   0  0  0  0  0  0  0  0  0  0  0  0
    2.3674   -3.7510   18.6182 C   0  0  0  0  0  0  0  0  0  0  0  0
    4.5102   -2.5885   18.3877 C   0  0  0  0  0  0  0  0  0  0  0  0
    3.0944   -5.1041   18.5568 C   0  0  0  0  0  0  0  0  0  0  0  0
    5.2379   -3.9437   18.3301 C   0  0  0  0  0  0  0  0  0  0  0  0
    4.4700   -4.9536   19.1104 N   0  0  0  0  0  0  0  0  0  0  0  0
   -0.7328    4.5345   15.0806 C   0  0  0  0  0  0  0  0  0  0  0  0
   -7.1309    3.9709   14.6819 N   0  0  0  0  0  0  0  0  0  0  0  0
   -1.5609    3.3929   15.1999 C   0  0  0  0  0  0  0  0  0  0  0  0
   -0.9862    2.1301   15.5040 C   0  0  0  0  0  0  0  0  0  0  0  0
    0.4181    2.0095   15.6922 C   0  0  0  0  0  0  0  0  0  0  0  0
    1.2532    3.1589   15.5553 C   0  0  0  0  0  0  0  0  0  0  0  0
    0.6719    4.4210   15.2538 C   0  0  0  0  0  0  0  0  0  0  0  0
   -7.4221    4.1012   16.0588 C   0  0  0  0  0  0  0  0  0  0  0  0
   -6.2454    4.0024   16.8356 C   0  0  0  0  0  0  0  0  0  0  0  0
   -3.8035    3.6734   16.1335 C   0  0  0  0  0  0  0  0  0  0  0  0
   -2.9444    3.5193   15.0116 C   0  0  0  0  0  0  0  0  0  0  0  0
   -3.4899    3.5007   13.6984 C   0  0  0  0  0  0  0  0  0  0  0  0
   -4.8915    3.6382   13.5084 C   0  0  0  0  0  0  0  0  0  0  0  0
   -5.7516    3.8070   14.6383 C   0  0  0  0  0  0  0  0  0  0  0  0
   -5.2139    3.8250   15.9383 C   0  0  0  0  0  0  0  0  0  0  0  0
  1  6  1  0  0  0  0
  2  4  1  0  0  0  0
  3  7  1  0  0  0  0
  4  5  1  0  0  0  0
  6  2  1  0  0  0  0
  7  8  1  0  0  0  0
  8  9  1  0  0  0  0
  9 10  1  0  0  0  0
 10 11  1  0  0  0  0
 10 12  1  0  0  0  0
 11 13  1  0  0  0  0
 13 15  1  0  0  0  0
 14 12  1  0  0  0  0
 15 14  1  0  0  0  0
 16 18  2  0  0  0  0
 16 22  1  0  0  0  0
 17 23  1  0  0  0  0
 17 29  1  0  0  0  0
 18 19  1  0  0  0  0
 18 26  1  0  0  0  0
 19 20  2  0  0  0  0
 20  3  1  0  0  0  0
 20 21  1  0  0  0  0
 21  5  1  0  0  0  0
 21 22  2  0  0  0  0
 23 24  2  0  0  0  0
 24 30  1  0  0  0  0
 25 26  2  0  0  0  0
 25 30  1  0  0  0  0
 26 27  1  0  0  0  0
 27 28  2  0  0  0  0
 28 29  1  0  0  0  0
 29 30  2  0  0  0  0
M  END
>  <CHROM.1>
-177.20983166,169.67762647,-165.05230308,-175.06506261,-173.90479718,-82.99215700
176.15732721,-166.17166678,-96.55262969,-150.64166313,-166.27878332,0.45290958
1.66445226,16.26006579,-0.61456629,-0.06909627,-0.33697315

>  <Name>
1uts_lig

>  <RI>
0

>  <Rbt.Current_Directory>
/home/itssahil/PROJECTS/Mol_Feturizer/New_Systems/rnas/1uts

>  <Rbt.Executable>
rbdock ($Id: //depot/dev/client3/rdock/2013.1/src/exe/rbdock.cxx#4 $)

>  <Rbt.Library>
libRbt.so (2013.1, Build901 2013/11/27)

>  <Rbt.Parameter_File>
/export/apps/rDock/src/rDock_2013.1_src/data/scripts/dock_solv.prm

>  <Rbt.Receptor>
prm/pocket_docking_8.prm

>  <SCORE>
-29.8436

>  <SCORE.INTER>
-26.7232

>  <SCORE.INTER.CONST>
1

>  <SCORE.INTER.POLAR>
-0.8

>  <SCORE.INTER.ROT>
10

>  <SCORE.INTER.SOLV>
10.3847

>  <SCORE.INTER.VDW>
-28.8771

>  <SCORE.INTER.norm>
-0.890775

>  <SCORE.INTRA>
-3.12032

>  <SCORE.INTRA.DIHEDRAL>
-9.48845

>  <SCORE.INTRA.DIHEDRAL.0>
18.0451

>  <SCORE.INTRA.POLAR>
-0.599017

>  <SCORE.INTRA.POLAR.0>
-0.196815

>  <SCORE.INTRA.REPUL>
0

>  <SCORE.INTRA.REPUL.0>
0

>  <SCORE.INTRA.SOLV>
-0.298819

>  <SCORE.INTRA.SOLV.lig_0>
-14.7906

>  <SCORE.INTRA.VDW>
3.80997

>  <SCORE.INTRA.VDW.0>
-0.411701

>  <SCORE.INTRA.norm>
-0.104011

>  <SCORE.RESTR>
0

>  <SCORE.RESTR.CAVITY>
0

>  <SCORE.RESTR.norm>
0

>  <SCORE.SYSTEM>
0

>  <SCORE.SYSTEM.CONST>
0

>  <SCORE.SYSTEM.DIHEDRAL>
0

>  <SCORE.SYSTEM.SOLV>
0

>  <SCORE.SYSTEM.norm>
0

>  <SCORE.heavy>
30

>  <SCORE.norm>
-0.994785

>  <RMSD>
2.763

$$$$
1uts_lig
 OpenBabel11021811413D
libRbt.so/2013.1/901 2013/11/27
 30 33  0  0  0  0  0  0  0  0999 V2000
    3.9955    5.6422   18.1812 N   0  0  0  0  0  0  0  0  0  0  0  0
    3.7264    4.4126   16.0710 C   0  0  0  0  0  0  0  0  0  0  0  0
    0.1742    1.0516   15.6871 C   0  0  0  0  0  0  0  0  0  0  0  0
    2.2068    4.5876   15.9962 C   0  0  0  0  0  0  0  0  0  0  0  0
    1.5671    3.4704   16.6306 O   0  0  0  0  0  0  0  0  0  0  0  0
    4.1592    4.3203   17.5354 C   0  0  0  0  0  0  0  0  0  0  0  0
    0.9667    0.6417   16.8686 N   0  0  0  0  0  0  0  0  0  0  0  0
    2.0679   -0.2627   16.4439 C   0  0  0  0  0  0  0  0  0  0  0  0
    2.9301   -0.6327   17.6543 C   0  0  0  0  0  0  0  0  0  0  0  0
    4.1910   -1.2535   17.1897 N   0  0  0  0  0  0  0  0  0  0  0  0
    4.7196   -2.1519   18.2561 C   0  0  0  0  0  0  0  0  0  0  0  0
    5.1801   -0.1850   16.8722 C   0  0  0  0  0  0  0  0  0  0  0  0
    6.0314   -2.7956   17.7785 C   0  0  0  0  0  0  0  0  0  0  0  0
    6.4954   -0.8285   16.3974 C   0  0  0  0  0  0  0  0  0  0  0  0
    7.0215   -1.7275   17.4620 N   0  0  0  0  0  0  0  0  0  0  0  0
   -1.9596    4.8001   16.4683 C   0  0  0  0  0  0  0  0  0  0  0  0
   -8.1795    3.8643   14.9228 N   0  0  0  0  0  0  0  0  0  0  0  0
   -2.6631    3.6654   15.9985 C   0  0  0  0  0  0  0  0  0  0  0  0
   -1.9655    2.4540   15.7469 C   0  0  0  0  0  0  0  0  0  0  0  0
   -0.5631    2.3764   15.9684 C   0  0  0  0  0  0  0  0  0  0  0  0
    0.1471    3.5266   16.4266 C   0  0  0  0  0  0  0  0  0  0  0  0
   -0.5570    4.7356   16.6797 C   0  0  0  0  0  0  0  0  0  0  0  0
   -8.1216    3.3357   13.6133 C   0  0  0  0  0  0  0  0  0  0  0  0
   -6.7870    3.0603   13.2382 C   0  0  0  0  0  0  0  0  0  0  0  0
   -4.5959    3.3387   14.5366 C   0  0  0  0  0  0  0  0  0  0  0  0
   -4.0456    3.7499   15.7810 C   0  0  0  0  0  0  0  0  0  0  0  0
   -4.9000    4.2401   16.8066 C   0  0  0  0  0  0  0  0  0  0  0  0
   -6.3021    4.3166   16.5882 C   0  0  0  0  0  0  0  0  0  0  0  0
   -6.8543    3.8891   15.3403 C   0  0  0  0  0  0  0  0  0  0  0  0
   -6.0105    3.4043   14.3242 C   0  0  0  0  0  0  0  0  0  0  0  0
  1  6  1  0  0  0  0
  2  4  1  0  0  0  0
  3  7  1  0  0  0  0
  4  5  1  0  0  0  0
  6  2  1  0  0  0  0
  7  8  1  0  0  0  0
  8  9  1  0  0  0  0
  9 10  1  0  0  0  0
 10 11  1  0  0  0  0
 10 12  1  0  0  0  0
 11 13  1  0  0  0  0
 13 15  1  0  0  0  0
 14 12  1  0  0  0  0
 15 14  1  0  0  0  0
 16 18  2  0  0  0  0
 16 22  1  0  0  0  0
 17 23  1  0  0  0  0
 17 29  1  0  0  0  0
 18 19  1  0  0  0  0
 18 26  1  0  0  0  0
 19 20  2  0  0  0  0
 20  3  1  0  0  0  0
 20 21  1  0  0  0  0
 21  5  1  0  0  0  0
 21 22  2  0  0  0  0
 23 24  2  0  0  0  0
 24 30  1  0  0  0  0
 25 26  2  0  0  0  0
 25 30  1  0  0  0  0
 26 27  1  0  0  0  0
 27 28  2  0  0  0  0
 28 29  1  0  0  0  0
 29 30  2  0  0  0  0
M  END
>  <CHROM.1>
62.40597640,-59.21949721,-156.83549968,-172.76923550,-70.16448907,177.22992977
-166.53212241,-154.06005462,128.43461340,-127.43454605,131.06073788,-0.02073756
2.23946725,16.31033196,-0.32137846,-0.22633543,0.07598016

>  <Name>
1uts_lig

>  <RI>
0

>  <Rbt.Current_Directory>
/home/itssahil/PROJECTS/Mol_Feturizer/New_Systems/rnas/1uts

>  <Rbt.Executable>
rbdock ($Id: //depot/dev/client3/rdock/2013.1/src/exe/rbdock.cxx#4 $)

>  <Rbt.Library>
libRbt.so (2013.1, Build901 2013/11/27)

>  <Rbt.Parameter_File>
/export/apps/rDock/src/rDock_2013.1_src/data/scripts/dock_solv.prm

>  <Rbt.Receptor>
prm/pocket_docking_7.prm

>  <SCORE>
-33.1876

>  <SCORE.INTER>
-28.1701

>  <SCORE.INTER.CONST>
1

>  <SCORE.INTER.POLAR>
-1.42353

>  <SCORE.INTER.ROT>
10

>  <SCORE.INTER.SOLV>
9.1943

>  <SCORE.INTER.VDW>
-27.3664

>  <SCORE.INTER.norm>
-0.939004

>  <SCORE.INTRA>
-5.01745

>  <SCORE.INTRA.DIHEDRAL>
-7.78416

>  <SCORE.INTRA.DIHEDRAL.0>
18.0451

>  <SCORE.INTRA.POLAR>
-0.427442

>  <SCORE.INTRA.POLAR.0>
-0.196815

>  <SCORE.INTRA.REPUL>
0

>  <SCORE.INTRA.REPUL.0>
0

>  <SCORE.INTRA.SOLV>
-0.117698

>  <SCORE.INTRA.SOLV.lig_0>
-14.7906

>  <SCORE.INTRA.VDW>
0.38678

>  <SCORE.INTRA.VDW.0>
-0.411701

>  <SCORE.INTRA.norm>
-0.167248

>  <SCORE.RESTR>
0

>  <SCORE.RESTR.CAVITY>
0

>  <SCORE.RESTR.norm>
0

>  <SCORE.SYSTEM>
0

>  <SCORE.SYSTEM.CONST>
0

>  <SCORE.SYSTEM.DIHEDRAL>
0

>  <SCORE.SYSTEM.SOLV>
0

>  <SCORE.SYSTEM.norm>
0

>  <SCORE.heavy>
30

>  <SCORE.norm>
-1.10625

>  <RMSD>
2.821

$$$$
1uts_lig
 OpenBabel11021811413D
libRbt.so/2013.1/901 2013/11/27
 30 33  0  0  0  0  0  0  0  0999 V2000
    4.3143    7.4610   19.9944 N   0  0  0  0  0  0  0  0  0  0  0  0
    2.7094    5.9959   18.8477 C   0  0  0  0  0  0  0  0  0  0  0  0
    0.5105    3.2361   15.1840 C   0  0  0  0  0  0  0  0  0  0  0  0
    1.2507    5.8657   18.3998 C   0  0  0  0  0  0  0  0  0  0  0  0
    1.0686    4.6093   17.7303 O   0  0  0  0  0  0  0  0  0  0  0  0
    2.8857    7.2886   19.6464 C   0  0  0  0  0  0  0  0  0  0  0  0
    1.5794    2.6310   16.0106 N   0  0  0  0  0  0  0  0  0  0  0  0
    1.3979    1.1560   16.0627 C   0  0  0  0  0  0  0  0  0  0  0  0
    2.2853    0.5636   17.1613 C   0  0  0  0  0  0  0  0  0  0  0  0
    2.2813   -0.9128   17.0551 N   0  0  0  0  0  0  0  0  0  0  0  0
    0.8834   -1.4128   17.1961 C   0  0  0  0  0  0  0  0  0  0  0  0
    3.1492   -1.4873   18.1216 C   0  0  0  0  0  0  0  0  0  0  0  0
    0.8758   -2.9464   17.0901 C   0  0  0  0  0  0  0  0  0  0  0  0
    3.1394   -3.0232   18.0188 C   0  0  0  0  0  0  0  0  0  0  0  0
    1.7427   -3.5216   18.1573 N   0  0  0  0  0  0  0  0  0  0  0  0
   -2.6968    4.8398   17.7052 C   0  0  0  0  0  0  0  0  0  0  0  0
   -8.2956    3.6513   14.6511 N   0  0  0  0  0  0  0  0  0  0  0  0
   -3.0061    4.2024   16.4799 C   0  0  0  0  0  0  0  0  0  0  0  0
   -1.9620    3.6854   15.6675 C   0  0  0  0  0  0  0  0  0  0  0  0
   -0.6071    3.8032   16.0825 C   0  0  0  0  0  0  0  0  0  0  0  0
   -0.2963    4.4607   17.3107 C   0  0  0  0  0  0  0  0  0  0  0  0
   -1.3458    4.9735   18.1213 C   0  0  0  0  0  0  0  0  0  0  0  0
   -7.9843    3.3151   13.3140 C   0  0  0  0  0  0  0  0  0  0  0  0
   -6.5862    3.3094   13.1069 C   0  0  0  0  0  0  0  0  0  0  0  0
   -4.6557    3.7637   14.7289 C   0  0  0  0  0  0  0  0  0  0  0  0
   -4.3442    4.0914   16.0766 C   0  0  0  0  0  0  0  0  0  0  0  0
   -5.3916    4.2992   17.0158 C   0  0  0  0  0  0  0  0  0  0  0  0
   -6.7474    4.1773   16.6078 C   0  0  0  0  0  0  0  0  0  0  0  0
   -7.0573    3.8339   15.2547 C   0  0  0  0  0  0  0  0  0  0  0  0
   -6.0225    3.6284   14.3239 C   0  0  0  0  0  0  0  0  0  0  0  0
  1  6  1  0  0  0  0
  2  4  1  0  0  0  0
  3  7  1  0  0  0  0
  4  5  1  0  0  0  0
  6  2  1  0  0  0  0
  7  8  1  0  0  0  0
  8  9  1  0  0  0  0
  9 10  1  0  0  0  0
 10 11  1  0  0  0  0
 10 12  1  0  0  0  0
 11 13  1  0  0  0  0
 13 15  1  0  0  0  0
 14 12  1  0  0  0  0
 15 14  1  0  0  0  0
 16 18  2  0  0  0  0
 16 22  1  0  0  0  0
 17 23  1  0  0  0  0
 17 29  1  0  0  0  0
 18 19  1  0  0  0  0
 18 26  1  0  0  0  0
 19 20  2  0  0  0  0
 20  3  1  0  0  0  0
 20 21  1  0  0  0  0
 21  5  1  0  0  0  0
 21 22  2  0  0  0  0
 23 24  2  0  0  0  0
 24 30  1  0  0  0  0
 25 26  2  0  0  0  0
 25 30  1  0  0  0  0
 26 27  1  0  0  0  0
 27 28  2  0  0  0  0
 28 29  1  0  0  0  0
 29 30  2  0  0  0  0
M  END
>  <CHROM.1>
-61.84731020,-176.08534636,99.03816266,179.53117014,-175.95325692,-166.90374830
-170.24794351,-59.22480371,164.46614020,-142.28493740,144.25375386,-1.02171558
2.79643221,16.77639496,-0.24811614,-0.36898532,0.17016859

>  <Name>
1uts_lig

>  <RI>
0

>  <Rbt.Current_Directory>
/home/itssahil/PROJECTS/Mol_Feturizer/New_Systems/rnas/1uts

>  <Rbt.Executable>
rbdock ($Id: //depot/dev/client3/rdock/2013.1/src/exe/rbdock.cxx#4 $)

>  <Rbt.Library>
libRbt.so (2013.1, Build901 2013/11/27)

>  <Rbt.Parameter_File>
/export/apps/rDock/src/rDock_2013.1_src/data/scripts/dock_solv.prm

>  <Rbt.Receptor>
prm/pocket_docking_4.prm

>  <SCORE>
-32.1043

>  <SCORE.INTER>
-28.6947

>  <SCORE.INTER.CONST>
1

>  <SCORE.INTER.POLAR>
-1.24974

>  <SCORE.INTER.ROT>
10

>  <SCORE.INTER.SOLV>
8.93951

>  <SCORE.INTER.VDW>
-28.2105

>  <SCORE.INTER.norm>
-0.95649

>  <SCORE.INTRA>
-3.40966

>  <SCORE.INTRA.DIHEDRAL>
-11.8245

>  <SCORE.INTRA.DIHEDRAL.0>
18.0451

>  <SCORE.INTRA.POLAR>
-0.535657

>  <SCORE.INTRA.POLAR.0>
-0.196815

>  <SCORE.INTRA.REPUL>
0

>  <SCORE.INTRA.REPUL.0>
0

>  <SCORE.INTRA.SOLV>
-0.323698

>  <SCORE.INTRA.SOLV.lig_0>
-14.7906

>  <SCORE.INTRA.VDW>
4.48566

>  <SCORE.INTRA.VDW.0>
-0.411701

>  <SCORE.INTRA.norm>
-0.113655

>  <SCORE.RESTR>
0

>  <SCORE.RESTR.CAVITY>
0

>  <SCORE.RESTR.norm>
0

>  <SCORE.SYSTEM>
0

>  <SCORE.SYSTEM.CONST>
0

>  <SCORE.SYSTEM.DIHEDRAL>
0

>  <SCORE.SYSTEM.SOLV>
0

>  <SCORE.SYSTEM.norm>
0

>  <SCORE.heavy>
30

>  <SCORE.norm>
-1.07014

>  <RMSD>
2.829

$$$$
1uts_lig
 OpenBabel11021811413D
libRbt.so/2013.1/901 2013/11/27
 30 33  0  0  0  0  0  0  0  0999 V2000
    4.1926    5.6892   18.5663 N   0  0  0  0  0  0  0  0  0  0  0  0
    2.3280    4.0892   18.5486 C   0  0  0  0  0  0  0  0  0  0  0  0
   -0.0747    0.4450   17.4894 C   0  0  0  0  0  0  0  0  0  0  0  0
    3.0171    3.3546   17.3951 C   0  0  0  0  0  0  0  0  0  0  0  0
    2.3002    2.1458   17.1045 O   0  0  0  0  0  0  0  0  0  0  0  0
    2.7180    5.5682   18.5190 C   0  0  0  0  0  0  0  0  0  0  0  0
    0.6051   -0.7252   16.8888 N   0  0  0  0  0  0  0  0  0  0  0  0
    1.1444   -1.5980   17.9650 C   0  0  0  0  0  0  0  0  0  0  0  0
    1.8837   -2.7875   17.3452 C   0  0  0  0  0  0  0  0  0  0  0  0
    2.6516   -3.4921   18.3963 N   0  0  0  0  0  0  0  0  0  0  0  0
    3.9395   -3.9782   17.8228 C   0  0  0  0  0  0  0  0  0  0  0  0
    1.8477   -4.6358   18.9128 C   0  0  0  0  0  0  0  0  0  0  0  0
    4.7383   -4.7140   18.9108 C   0  0  0  0  0  0  0  0  0  0  0  0
    2.6481   -5.3757   19.9997 C   0  0  0  0  0  0  0  0  0  0  0  0
    3.9353   -5.8587   19.4269 N   0  0  0  0  0  0  0  0  0  0  0  0
   -0.0679    3.8189   14.6910 C   0  0  0  0  0  0  0  0  0  0  0  0
   -5.6640    4.1363   11.5691 N   0  0  0  0  0  0  0  0  0  0  0  0
   -1.2240    3.0149   14.8335 C   0  0  0  0  0  0  0  0  0  0  0  0
   -1.2193    1.9229   15.7418 C   0  0  0  0  0  0  0  0  0  0  0  0
   -0.0580    1.6365   16.5107 C   0  0  0  0  0  0  0  0  0  0  0  0
    1.1121    2.4385   16.3534 C   0  0  0  0  0  0  0  0  0  0  0  0
    1.1006    3.5322   15.4450 C   0  0  0  0  0  0  0  0  0  0  0  0
   -4.9577    4.2668   10.3519 C   0  0  0  0  0  0  0  0  0  0  0  0
   -3.5700    4.0870   10.5512 C   0  0  0  0  0  0  0  0  0  0  0  0
   -2.2431    3.5567   12.6777 C   0  0  0  0  0  0  0  0  0  0  0  0
   -2.3648    3.3026   14.0709 C   0  0  0  0  0  0  0  0  0  0  0  0
   -3.6456    3.3338   14.6880 C   0  0  0  0  0  0  0  0  0  0  0  0
   -4.8022    3.6164   13.9121 C   0  0  0  0  0  0  0  0  0  0  0  0
   -4.6781    3.8578   12.5081 C   0  0  0  0  0  0  0  0  0  0  0  0
   -3.4117    3.8280   11.8960 C   0  0  0  0  0  0  0  0  0  0  0  0
  1  6  1  0  0  0  0
  2  4  1  0  0  0  0
  3  7  1  0  0  0  0
  4  5  1  0  0  0  0
  6  2  1  0  0  0  0
  7  8  1  0  0  0  0
  8  9  1  0  0  0  0
  9 10  1  0  0  0  0
 10 11  1  0  0  0  0
 10 12  1  0  0  0  0
 11 13  1  0  0  0  0
 13 15  1  0  0  0  0
 14 12  1  0  0  0  0
 15 14  1  0  0  0  0
 16 18  2  0  0  0  0
 16 22  1  0  0  0  0
 17 23  1  0  0  0  0
 17 29  1  0  0  0  0
 18 19  1  0  0  0  0
 18 26  1  0  0  0  0
 19 20  2  0  0  0  0
 20  3  1  0  0  0  0
 20 21  1  0  0  0  0
 21  5  1  0  0  0  0
 21 22  2  0  0  0  0
 23 24  2  0  0  0  0
 24 30  1  0  0  0  0
 25 26  2  0  0  0  0
 25 30  1  0  0  0  0
 26 27  1  0  0  0  0
 27 28  2  0  0  0  0
 28 29  1  0  0  0  0
 29 30  2  0  0  0  0
M  END
>  <CHROM.1>
177.64881628,-158.42637017,153.76713026,77.49816904,-56.06944432,-178.34489137
168.30718757,-143.52642407,46.66729426,100.16286644,-147.84078567,0.23201175
1.17390981,16.10545478,-0.76358966,-0.67123192,-0.10347892

>  <Name>
1uts_lig

>  <RI>
0

>  <Rbt.Current_Directory>
/home/itssahil/PROJECTS/Mol_Feturizer/New_Systems/rnas/1uts

>  <Rbt.Executable>
rbdock ($Id: //depot/dev/client3/rdock/2013.1/src/exe/rbdock.cxx#4 $)

>  <Rbt.Library>
libRbt.so (2013.1, Build901 2013/11/27)

>  <Rbt.Parameter_File>
/export/apps/rDock/src/rDock_2013.1_src/data/scripts/dock_solv.prm

>  <Rbt.Receptor>
prm/pocket_docking_4.prm

>  <SCORE>
-22.6908

>  <SCORE.INTER>
-22.9653

>  <SCORE.INTER.CONST>
1

>  <SCORE.INTER.POLAR>
-1.50658

>  <SCORE.INTER.ROT>
10

>  <SCORE.INTER.SOLV>
10.624

>  <SCORE.INTER.VDW>
-24.0962

>  <SCORE.INTER.norm>
-0.765509

>  <SCORE.INTRA>
0.274425

>  <SCORE.INTRA.DIHEDRAL>
-6.02681

>  <SCORE.INTRA.DIHEDRAL.0>
18.0451

>  <SCORE.INTRA.POLAR>
0.196815

>  <SCORE.INTRA.POLAR.0>
-0.196815

>  <SCORE.INTRA.REPUL>
0

>  <SCORE.INTRA.REPUL.0>
0

>  <SCORE.INTRA.SOLV>
-0.427394

>  <SCORE.INTRA.SOLV.lig_0>
-14.7906

>  <SCORE.INTRA.VDW>
2.83236

>  <SCORE.INTRA.VDW.0>
-0.411701

>  <SCORE.INTRA.norm>
0.00914749

>  <SCORE.RESTR>
0

>  <SCORE.RESTR.CAVITY>
0

>  <SCORE.RESTR.norm>
0

>  <SCORE.SYSTEM>
0

>  <SCORE.SYSTEM.CONST>
0

>  <SCORE.SYSTEM.DIHEDRAL>
0

>  <SCORE.SYSTEM.SOLV>
0

>  <SCORE.SYSTEM.norm>
0

>  <SCORE.heavy>
30

>  <SCORE.norm>
-0.756361

>  <RMSD>
2.836

$$$$
1uts_lig
 OpenBabel11021811413D
libRbt.so/2013.1/901 2013/11/27
 30 33  0  0  0  0  0  0  0  0999 V2000
    6.9473    3.2181   16.9108 N   0  0  0  0  0  0  0  0  0  0  0  0
    4.5476    2.7033   16.7929 C   0  0  0  0  0  0  0  0  0  0  0  0
    0.4936   -0.0505   15.7695 C   0  0  0  0  0  0  0  0  0  0  0  0
    3.2363    3.0533   16.0835 C   0  0  0  0  0  0  0  0  0  0  0  0
    2.1838    2.2192   16.5897 O   0  0  0  0  0  0  0  0  0  0  0  0
    5.6855    3.5416   16.2074 C   0  0  0  0  0  0  0  0  0  0  0  0
    1.3022   -0.1375   17.0067 N   0  0  0  0  0  0  0  0  0  0  0  0
    1.8891   -1.4984   17.1268 C   0  0  0  0  0  0  0  0  0  0  0  0
    3.0256   -1.4835   18.1533 C   0  0  0  0  0  0  0  0  0  0  0  0
    3.7859   -2.7504   18.0649 N   0  0  0  0  0  0  0  0  0  0  0  0
    2.9785   -3.8520   18.6635 C   0  0  0  0  0  0  0  0  0  0  0  0
    5.0801   -2.6016   18.7887 C   0  0  0  0  0  0  0  0  0  0  0  0
    3.7667   -5.1690   18.5769 C   0  0  0  0  0  0  0  0  0  0  0  0
    5.8686   -3.9210   18.7058 C   0  0  0  0  0  0  0  0  0  0  0  0
    5.0606   -5.0211   19.3017 N   0  0  0  0  0  0  0  0  0  0  0  0
   -0.6269    4.1011   14.9194 C   0  0  0  0  0  0  0  0  0  0  0  0
   -6.0672    4.1640   11.4732 N   0  0  0  0  0  0  0  0  0  0  0  0
   -1.4581    3.0381   14.4923 C   0  0  0  0  0  0  0  0  0  0  0  0
   -1.0888    1.6951   14.7707 C   0  0  0  0  0  0  0  0  0  0  0  0
    0.1115    1.4151   15.4797 C   0  0  0  0  0  0  0  0  0  0  0  0
    0.9564    2.4878   15.8951 C   0  0  0  0  0  0  0  0  0  0  0  0
    0.5801    3.8303   15.6164 C   0  0  0  0  0  0  0  0  0  0  0  0
   -5.4153    4.4077   10.2430 C   0  0  0  0  0  0  0  0  0  0  0  0
   -4.0143    4.2803   10.3797 C   0  0  0  0  0  0  0  0  0  0  0  0
   -2.5834    3.6730   12.4163 C   0  0  0  0  0  0  0  0  0  0  0  0
   -2.6393    3.3219   13.7925 C   0  0  0  0  0  0  0  0  0  0  0  0
   -3.8952    3.2521   14.4558 C   0  0  0  0  0  0  0  0  0  0  0  0
   -5.0926    3.5310   13.7430 C   0  0  0  0  0  0  0  0  0  0  0  0
   -5.0341    3.8705   12.3550 C   0  0  0  0  0  0  0  0  0  0  0  0
   -3.7924    3.9405   11.6973 C   0  0  0  0  0  0  0  0  0  0  0  0
  1  6  1  0  0  0  0
  2  4  1  0  0  0  0
  3  7  1  0  0  0  0
  4  5  1  0  0  0  0
  6  2  1  0  0  0  0
  7  8  1  0  0  0  0
  8  9  1  0  0  0  0
  9 10  1  0  0  0  0
 10 11  1  0  0  0  0
 10 12  1  0  0  0  0
 11 13  1  0  0  0  0
 13 15  1  0  0  0  0
 14 12  1  0  0  0  0
 15 14  1  0  0  0  0
 16 18  2  0  0  0  0
 16 22  1  0  0  0  0
 17 23  1  0  0  0  0
 17 29  1  0  0  0  0
 18 19  1  0  0  0  0
 18 26  1  0  0  0  0
 19 20  2  0  0  0  0
 20  3  1  0  0  0  0
 20 21  1  0  0  0  0
 21  5  1  0  0  0  0
 21 22  2  0  0  0  0
 23 24  2  0  0  0  0
 24 30  1  0  0  0  0
 25 26  2  0  0  0  0
 25 30  1  0  0  0  0
 26 27  1  0  0  0  0
 27 28  2  0  0  0  0
 28 29  1  0  0  0  0
 29 30  2  0  0  0  0
M  END
>  <CHROM.1>
-176.88701482,177.20944473,-168.70959418,-177.37577647,179.03106701,163.79446691
-168.21875771,-73.70156569,77.47830381,-151.57589651,137.09596040,0.73847611
1.19096306,15.61139720,-0.70078648,-0.38015053,-0.34654514

>  <Name>
1uts_lig

>  <RI>
0

>  <Rbt.Current_Directory>
/home/itssahil/PROJECTS/Mol_Feturizer/New_Systems/rnas/1uts

>  <Rbt.Executable>
rbdock ($Id: //depot/dev/client3/rdock/2013.1/src/exe/rbdock.cxx#4 $)

>  <Rbt.Library>
libRbt.so (2013.1, Build901 2013/11/27)

>  <Rbt.Parameter_File>
/export/apps/rDock/src/rDock_2013.1_src/data/scripts/dock_solv.prm

>  <Rbt.Receptor>
prm/pocket_docking_4.prm

>  <SCORE>
-29.8628

>  <SCORE.INTER>
-24.6623

>  <SCORE.INTER.CONST>
1

>  <SCORE.INTER.POLAR>
-0.898405

>  <SCORE.INTER.ROT>
10

>  <SCORE.INTER.SOLV>
10.7744

>  <SCORE.INTER.VDW>
-27.3049

>  <SCORE.INTER.norm>
-0.822075

>  <SCORE.INTRA>
-5.20051

>  <SCORE.INTRA.DIHEDRAL>
-8.5373

>  <SCORE.INTRA.DIHEDRAL.0>
18.0451

>  <SCORE.INTRA.POLAR>
-0.522743

>  <SCORE.INTRA.POLAR.0>
-0.196815

>  <SCORE.INTRA.REPUL>
0

>  <SCORE.INTRA.REPUL.0>
0

>  <SCORE.INTRA.SOLV>
-0.28081

>  <SCORE.INTRA.SOLV.lig_0>
-14.7906

>  <SCORE.INTRA.VDW>
0.985872

>  <SCORE.INTRA.VDW.0>
-0.411701

>  <SCORE.INTRA.norm>
-0.17335

>  <SCORE.RESTR>
0

>  <SCORE.RESTR.CAVITY>
0

>  <SCORE.RESTR.norm>
0

>  <SCORE.SYSTEM>
0

>  <SCORE.SYSTEM.CONST>
0

>  <SCORE.SYSTEM.DIHEDRAL>
0

>  <SCORE.SYSTEM.SOLV>
0

>  <SCORE.SYSTEM.norm>
0

>  <SCORE.heavy>
30

>  <SCORE.norm>
-0.995425

>  <RMSD>
2.840

$$$$
1uts_lig
 OpenBabel11021811413D
libRbt.so/2013.1/901 2013/11/27
 30 33  0  0  0  0  0  0  0  0999 V2000
    6.9214    2.7681   16.7258 N   0  0  0  0  0  0  0  0  0  0  0  0
    4.8084    4.0088   16.5435 C   0  0  0  0  0  0  0  0  0  0  0  0
    1.0064    0.6289   15.7319 C   0  0  0  0  0  0  0  0  0  0  0  0
    3.3776    3.9509   16.0007 C   0  0  0  0  0  0  0  0  0  0  0  0
    2.6660    2.8850   16.6467 O   0  0  0  0  0  0  0  0  0  0  0  0
    5.5357    2.7052   16.2087 C   0  0  0  0  0  0  0  0  0  0  0  0
    2.1887    0.3529   16.5791 N   0  0  0  0  0  0  0  0  0  0  0  0
    1.7516   -0.2370   17.8722 C   0  0  0  0  0  0  0  0  0  0  0  0
    2.9442   -0.8982   18.5693 C   0  0  0  0  0  0  0  0  0  0  0  0
    3.1942   -2.2258   17.9645 N   0  0  0  0  0  0  0  0  0  0  0  0
    2.0857   -3.1521   18.3349 C   0  0  0  0  0  0  0  0  0  0  0  0
    4.4989   -2.7541   18.4540 C   0  0  0  0  0  0  0  0  0  0  0  0
    2.3439   -4.5335   17.7117 C   0  0  0  0  0  0  0  0  0  0  0  0
    4.7567   -4.1390   17.8334 C   0  0  0  0  0  0  0  0  0  0  0  0
    3.6481   -5.0628   18.2018 N   0  0  0  0  0  0  0  0  0  0  0  0
   -0.7223    4.5431   16.6837 C   0  0  0  0  0  0  0  0  0  0  0  0
   -7.0696    4.2314   15.4333 N   0  0  0  0  0  0  0  0  0  0  0  0
   -1.5521    3.4900   16.2299 C   0  0  0  0  0  0  0  0  0  0  0  0
   -0.9854    2.2243   15.9228 C   0  0  0  0  0  0  0  0  0  0  0  0
    0.4124    2.0106   16.0726 C   0  0  0  0  0  0  0  0  0  0  0  0
    1.2496    3.0786   16.5148 C   0  0  0  0  0  0  0  0  0  0  0  0
    0.6763    4.3426   16.8237 C   0  0  0  0  0  0  0  0  0  0  0  0
   -7.1228    3.7399   14.1091 C   0  0  0  0  0  0  0  0  0  0  0  0
   -5.8389    3.3539   13.6616 C   0  0  0  0  0  0  0  0  0  0  0  0
   -3.5732    3.3885   14.8571 C   0  0  0  0  0  0  0  0  0  0  0  0
   -2.9291    3.7087   16.0831 C   0  0  0  0  0  0  0  0  0  0  0  0
   -3.6849    4.2443   17.1621 C   0  0  0  0  0  0  0  0  0  0  0  0
   -5.0823    4.4568   17.0152 C   0  0  0  0  0  0  0  0  0  0  0  0
   -5.7299    4.1206   15.7853 C   0  0  0  0  0  0  0  0  0  0  0  0
   -4.9837    3.5912   14.7165 C   0  0  0  0  0  0  0  0  0  0  0  0
  1  6  1  0  0  0  0
  2  4  1  0  0  0  0
  3  7  1  0  0  0  0
  4  5  1  0  0  0  0
  6  2  1  0  0  0  0
  7  8  1  0  0  0  0
  8  9  1  0  0  0  0
  9 10  1  0  0  0  0
 10 11  1  0  0  0  0
 10 12  1  0  0  0  0
 11 13  1  0  0  0  0
 13 15  1  0  0  0  0
 14 12  1  0  0  0  0
 15 14  1  0  0  0  0
 16 18  2  0  0  0  0
 16 22  1  0  0  0  0
 17 23  1  0  0  0  0
 17 29  1  0  0  0  0
 18 19  1  0  0  0  0
 18 26  1  0  0  0  0
 19 20  2  0  0  0  0
 20  3  1  0  0  0  0
 20 21  1  0  0  0  0
 21  5  1  0  0  0  0
 21 22  2  0  0  0  0
 23 24  2  0  0  0  0
 24 30  1  0  0  0  0
 25 26  2  0  0  0  0
 25 30  1  0  0  0  0
 26 27  1  0  0  0  0
 27 28  2  0  0  0  0
 28 29  1  0  0  0  0
 29 30  2  0  0  0  0
M  END
>  <CHROM.1>
-179.27015204,62.57178635,85.62852713,160.52338848,179.58289784,163.35312906
-79.50595605,-69.79250765,127.93198448,-149.31352868,131.06283247,0.38011090
1.50686992,16.59348761,-0.57496351,-0.11535685,-0.20753922

>  <Name>
1uts_lig

>  <RI>
0

>  <Rbt.Current_Directory>
/home/itssahil/PROJECTS/Mol_Feturizer/New_Systems/rnas/1uts

>  <Rbt.Executable>
rbdock ($Id: //depot/dev/client3/rdock/2013.1/src/exe/rbdock.cxx#4 $)

>  <Rbt.Library>
libRbt.so (2013.1, Build901 2013/11/27)

>  <Rbt.Parameter_File>
/export/apps/rDock/src/rDock_2013.1_src/data/scripts/dock_solv.prm

>  <Rbt.Receptor>
prm/pocket_docking_6.prm

>  <SCORE>
-30.1128

>  <SCORE.INTER>
-25.6303

>  <SCORE.INTER.CONST>
1

>  <SCORE.INTER.POLAR>
-1.18518

>  <SCORE.INTER.ROT>
10

>  <SCORE.INTER.SOLV>
9.07264

>  <SCORE.INTER.VDW>
-26.4272

>  <SCORE.INTER.norm>
-0.854344

>  <SCORE.INTRA>
-4.48248

>  <SCORE.INTRA.DIHEDRAL>
-6.26051

>  <SCORE.INTRA.DIHEDRAL.0>
18.0451

>  <SCORE.INTRA.POLAR>
-0.725936

>  <SCORE.INTRA.POLAR.0>
-0.196815

>  <SCORE.INTRA.REPUL>
0

>  <SCORE.INTRA.REPUL.0>
0

>  <SCORE.INTRA.SOLV>
0.0140088

>  <SCORE.INTRA.SOLV.lig_0>
-14.7906

>  <SCORE.INTRA.VDW>
1.10896

>  <SCORE.INTRA.VDW.0>
-0.411701

>  <SCORE.INTRA.norm>
-0.149416

>  <SCORE.RESTR>
0

>  <SCORE.RESTR.CAVITY>
0

>  <SCORE.RESTR.norm>
0

>  <SCORE.SYSTEM>
0

>  <SCORE.SYSTEM.CONST>
0

>  <SCORE.SYSTEM.DIHEDRAL>
0

>  <SCORE.SYSTEM.SOLV>
0

>  <SCORE.SYSTEM.norm>
0

>  <SCORE.heavy>
30

>  <SCORE.norm>
-1.00376

>  <RMSD>
2.854

$$$$
1uts_lig
 OpenBabel11021811413D
libRbt.so/2013.1/901 2013/11/27
 30 33  0  0  0  0  0  0  0  0999 V2000
    4.5300    3.6562   21.0652 N   0  0  0  0  0  0  0  0  0  0  0  0
    2.8673    4.1021   19.3119 C   0  0  0  0  0  0  0  0  0  0  0  0
    0.4442    2.5831   15.4866 C   0  0  0  0  0  0  0  0  0  0  0  0
    1.3890    3.9603   18.9382 C   0  0  0  0  0  0  0  0  0  0  0  0
    1.1799    4.4808   17.6171 O   0  0  0  0  0  0  0  0  0  0  0  0
    3.0957    3.5421   20.7170 C   0  0  0  0  0  0  0  0  0  0  0  0
    0.3213    1.1692   15.9082 N   0  0  0  0  0  0  0  0  0  0  0  0
    0.9694    0.9835   17.2335 C   0  0  0  0  0  0  0  0  0  0  0  0
    2.0667   -0.0797   17.1290 C   0  0  0  0  0  0  0  0  0  0  0  0
    1.5588   -1.3655   17.6579 N   0  0  0  0  0  0  0  0  0  0  0  0
    2.7116   -2.2534   17.9844 C   0  0  0  0  0  0  0  0  0  0  0  0
    0.6808   -2.0067   16.6387 C   0  0  0  0  0  0  0  0  0  0  0  0
    2.1878   -3.5915   18.5304 C   0  0  0  0  0  0  0  0  0  0  0  0
    0.1586   -3.3486   17.1829 C   0  0  0  0  0  0  0  0  0  0  0  0
    1.3106   -4.2339   17.5110 N   0  0  0  0  0  0  0  0  0  0  0  0
   -2.5493    5.0448   17.5344 C   0  0  0  0  0  0  0  0  0  0  0  0
   -8.2935    3.7109   14.8343 N   0  0  0  0  0  0  0  0  0  0  0  0
   -2.9418    4.1581   16.5034 C   0  0  0  0  0  0  0  0  0  0  0  0
   -1.9666    3.3636   15.8437 C   0  0  0  0  0  0  0  0  0  0  0  0
   -0.5977    3.4538   16.2176 C   0  0  0  0  0  0  0  0  0  0  0  0
   -0.2018    4.3606   17.2463 C   0  0  0  0  0  0  0  0  0  0  0  0
   -1.1828    5.1511   17.9053 C   0  0  0  0  0  0  0  0  0  0  0  0
   -8.0292    3.3108   13.5047 C   0  0  0  0  0  0  0  0  0  0  0  0
   -6.6381    3.2500   13.2625 C   0  0  0  0  0  0  0  0  0  0  0  0
   -4.6511    3.7046   14.8147 C   0  0  0  0  0  0  0  0  0  0  0  0
   -4.2931    4.0757   16.1393 C   0  0  0  0  0  0  0  0  0  0  0  0
   -5.3076    4.3561   17.0955 C   0  0  0  0  0  0  0  0  0  0  0  0
   -6.6771    4.2632   16.7276 C   0  0  0  0  0  0  0  0  0  0  0  0
   -7.0342    3.8761   15.3981 C   0  0  0  0  0  0  0  0  0  0  0  0
   -6.0319    3.5988   14.4505 C   0  0  0  0  0  0  0  0  0  0  0  0
  1  6  1  0  0  0  0
  2  4  1  0  0  0  0
  3  7  1  0  0  0  0
  4  5  1  0  0  0  0
  6  2  1  0  0  0  0
  7  8  1  0  0  0  0
  8  9  1  0  0  0  0
  9 10  1  0  0  0  0
 10 11  1  0  0  0  0
 10 12  1  0  0  0  0
 11 13  1  0  0  0  0
 13 15  1  0  0  0  0
 14 12  1  0  0  0  0
 15 14  1  0  0  0  0
 16 18  2  0  0  0  0
 16 22  1  0  0  0  0
 17 23  1  0  0  0  0
 17 29  1  0  0  0  0
 18 19  1  0  0  0  0
 18 26  1  0  0  0  0
 19 20  2  0  0  0  0
 20  3  1  0  0  0  0
 20 21  1  0  0  0  0
 21  5  1  0  0  0  0
 21 22  2  0  0  0  0
 23 24  2  0  0  0  0
 24 30  1  0  0  0  0
 25 26  2  0  0  0  0
 25 30  1  0  0  0  0
 26 27  1  0  0  0  0
 27 28  2  0  0  0  0
 28 29  1  0  0  0  0
 29 30  2  0  0  0  0
M  END
>  <CHROM.1>
-59.59558421,-179.72405059,-78.57825175,-179.87894579,178.90155503,-122.04658783
-100.70542339,-161.15463332,152.06484526,-73.19539983,-111.58603853,-1.17211147
2.13321611,16.95658809,-0.33122687,-0.44721454,0.21809916

>  <Name>
1uts_lig

>  <RI>
0

>  <Rbt.Current_Directory>
/home/itssahil/PROJECTS/Mol_Feturizer/New_Systems/rnas/1uts

>  <Rbt.Executable>
rbdock ($Id: //depot/dev/client3/rdock/2013.1/src/exe/rbdock.cxx#4 $)

>  <Rbt.Library>
libRbt.so (2013.1, Build901 2013/11/27)

>  <Rbt.Parameter_File>
/export/apps/rDock/src/rDock_2013.1_src/data/scripts/dock_solv.prm

>  <Rbt.Receptor>
prm/pocket_docking_4.prm

>  <SCORE>
-20.8455

>  <SCORE.INTER>
-20.7722

>  <SCORE.INTER.CONST>
1

>  <SCORE.INTER.POLAR>
-0.632005

>  <SCORE.INTER.ROT>
10

>  <SCORE.INTER.SOLV>
7.75882

>  <SCORE.INTER.VDW>
-24.5944

>  <SCORE.INTER.norm>
-0.692405

>  <SCORE.INTRA>
-0.290367

>  <SCORE.INTRA.DIHEDRAL>
-2.73748

>  <SCORE.INTRA.DIHEDRAL.0>
18.0451

>  <SCORE.INTRA.POLAR>
0.196815

>  <SCORE.INTRA.POLAR.0>
-0.196815

>  <SCORE.INTRA.REPUL>
0

>  <SCORE.INTRA.REPUL.0>
0

>  <SCORE.INTRA.SOLV>
-0.413741

>  <SCORE.INTRA.SOLV.lig_0>
-14.7906

>  <SCORE.INTRA.VDW>
0.61607

>  <SCORE.INTRA.VDW.0>
-0.411701

>  <SCORE.INTRA.norm>
-0.00967889

>  <SCORE.RESTR>
0.217059

>  <SCORE.RESTR.CAVITY>
0.217059

>  <SCORE.RESTR.norm>
0.0072353

>  <SCORE.SYSTEM>
0

>  <SCORE.SYSTEM.CONST>
0

>  <SCORE.SYSTEM.DIHEDRAL>
0

>  <SCORE.SYSTEM.SOLV>
0

>  <SCORE.SYSTEM.norm>
0

>  <SCORE.heavy>
30

>  <SCORE.norm>
-0.694849

>  <RMSD>
2.901

$$$$
1uts_lig
 OpenBabel11021811413D
libRbt.so/2013.1/901 2013/11/27
 30 33  0  0  0  0  0  0  0  0999 V2000
    4.3150    7.5105   19.9110 N   0  0  0  0  0  0  0  0  0  0  0  0
    4.6976    5.1103   19.5509 C   0  0  0  0  0  0  0  0  0  0  0  0
    0.8215    2.1220   19.8160 C   0  0  0  0  0  0  0  0  0  0  0  0
    3.3952    5.0113   18.7512 C   0  0  0  0  0  0  0  0  0  0  0  0
    2.3214    4.6514   19.6328 O   0  0  0  0  0  0  0  0  0  0  0  0
    4.5743    6.2228   20.5936 C   0  0  0  0  0  0  0  0  0  0  0  0
    1.3326    1.0358   18.9494 N   0  0  0  0  0  0  0  0  0  0  0  0
    2.7474    1.3105   18.5837 C   0  0  0  0  0  0  0  0  0  0  0  0
    3.2528    0.2308   17.6222 C   0  0  0  0  0  0  0  0  0  0  0  0
    4.7149    0.3761   17.4429 N   0  0  0  0  0  0  0  0  0  0  0  0
    4.9893    1.5542   16.5707 C   0  0  0  0  0  0  0  0  0  0  0  0
    5.2630   -0.8656   16.8275 C   0  0  0  0  0  0  0  0  0  0  0  0
    6.5070    1.7060   16.3791 C   0  0  0  0  0  0  0  0  0  0  0  0
    6.7822   -0.7133   16.6317 C   0  0  0  0  0  0  0  0  0  0  0  0
    7.0556    0.4649   15.7625 N   0  0  0  0  0  0  0  0  0  0  0  0
   -0.5776    5.4751   17.3637 C   0  0  0  0  0  0  0  0  0  0  0  0
   -6.1800    3.9161   14.6056 N   0  0  0  0  0  0  0  0  0  0  0  0
   -1.3185    4.2700   17.4106 C   0  0  0  0  0  0  0  0  0  0  0  0
   -0.8592    3.1872   18.2069 C   0  0  0  0  0  0  0  0  0  0  0  0
    0.3408    3.3109   18.9596 C   0  0  0  0  0  0  0  0  0  0  0  0
    1.0949    4.5211   18.8981 C   0  0  0  0  0  0  0  0  0  0  0  0
    0.6287    5.6028   18.1017 C   0  0  0  0  0  0  0  0  0  0  0  0
   -7.0300    4.2415   15.6870 C   0  0  0  0  0  0  0  0  0  0  0  0
   -6.2846    4.4560   16.8686 C   0  0  0  0  0  0  0  0  0  0  0  0
   -3.7584    4.3745   17.2877 C   0  0  0  0  0  0  0  0  0  0  0  0
   -2.4999    4.1550   16.6646 C   0  0  0  0  0  0  0  0  0  0  0  0
   -2.4411    3.8255   15.2825 C   0  0  0  0  0  0  0  0  0  0  0  0
   -3.6389    3.7183   14.5252 C   0  0  0  0  0  0  0  0  0  0  0  0
   -4.9027    3.9534   15.1518 C   0  0  0  0  0  0  0  0  0  0  0  0
   -4.9628    4.2788   16.5192 C   0  0  0  0  0  0  0  0  0  0  0  0
  1  6  1  0  0  0  0
  2  4  1  0  0  0  0
  3  7  1  0  0  0  0
  4  5  1  0  0  0  0
  6  2  1  0  0  0  0
  7  8  1  0  0  0  0
  8  9  1  0  0  0  0
  9 10  1  0  0  0  0
 10 11  1  0  0  0  0
 10 12  1  0  0  0  0
 11 13  1  0  0  0  0
 13 15  1  0  0  0  0
 14 12  1  0  0  0  0
 15 14  1  0  0  0  0
 16 18  2  0  0  0  0
 16 22  1  0  0  0  0
 17 23  1  0  0  0  0
 17 29  1  0  0  0  0
 18 19  1  0  0  0  0
 18 26  1  0  0  0  0
 19 20  2  0  0  0  0
 20  3  1  0  0  0  0
 20 21  1  0  0  0  0
 21  5  1  0  0  0  0
 21 22  2  0  0  0  0
 23 24  2  0  0  0  0
 24 30  1  0  0  0  0
 25 26  2  0  0  0  0
 25 30  1  0  0  0  0
 26 27  1  0  0  0  0
 27 28  2  0  0  0  0
 28 29  1  0  0  0  0
 29 30  2  0  0  0  0
M  END
>  <CHROM.1>
-165.36121218,-62.71792503,83.51707456,-178.61074714,-59.97943817,-176.74594335
-170.49822318,-74.43374985,-97.60822834,71.96595683,124.54060371,0.89291904
3.26331847,17.52288885,-0.10839268,-0.26147187,0.55699076

>  <Name>
1uts_lig

>  <RI>
0

>  <Rbt.Current_Directory>
/home/itssahil/PROJECTS/Mol_Feturizer/New_Systems/rnas/1uts

>  <Rbt.Executable>
rbdock ($Id: //depot/dev/client3/rdock/2013.1/src/exe/rbdock.cxx#4 $)

>  <Rbt.Library>
libRbt.so (2013.1, Build901 2013/11/27)

>  <Rbt.Parameter_File>
/export/apps/rDock/src/rDock_2013.1_src/data/scripts/dock_solv.prm

>  <Rbt.Receptor>
prm/pocket_docking_4.prm

>  <SCORE>
-20.845

>  <SCORE.INTER>
-17.8521

>  <SCORE.INTER.CONST>
1

>  <SCORE.INTER.POLAR>
-1.36002

>  <SCORE.INTER.ROT>
10

>  <SCORE.INTER.SOLV>
7.10587

>  <SCORE.INTER.VDW>
-20.0033

>  <SCORE.INTER.norm>
-0.59507

>  <SCORE.INTRA>
-2.99292

>  <SCORE.INTRA.DIHEDRAL>
-6.73374

>  <SCORE.INTRA.DIHEDRAL.0>
18.0451

>  <SCORE.INTRA.POLAR>
0.196815

>  <SCORE.INTRA.POLAR.0>
-0.196815

>  <SCORE.INTRA.REPUL>
0

>  <SCORE.INTRA.REPUL.0>
0

>  <SCORE.INTRA.SOLV>
-0.228991

>  <SCORE.INTRA.SOLV.lig_0>
-14.7906

>  <SCORE.INTRA.VDW>
-0.180728

>  <SCORE.INTRA.VDW.0>
-0.411701

>  <SCORE.INTRA.norm>
-0.0997641

>  <SCORE.RESTR>
0

>  <SCORE.RESTR.CAVITY>
0

>  <SCORE.RESTR.norm>
0

>  <SCORE.SYSTEM>
0

>  <SCORE.SYSTEM.CONST>
0

>  <SCORE.SYSTEM.DIHEDRAL>
0

>  <SCORE.SYSTEM.SOLV>
0

>  <SCORE.SYSTEM.norm>
0

>  <SCORE.heavy>
30

>  <SCORE.norm>
-0.694834

>  <RMSD>
2.905

$$$$
1uts_lig
 OpenBabel11021811413D
libRbt.so/2013.1/901 2013/11/27
 30 33  0  0  0  0  0  0  0  0999 V2000
    2.6273    7.0031   22.0886 N   0  0  0  0  0  0  0  0  0  0  0  0
    3.1697    7.4078   19.7265 C   0  0  0  0  0  0  0  0  0  0  0  0
    1.5218    4.5007   16.2898 C   0  0  0  0  0  0  0  0  0  0  0  0
    1.7468    7.0922   19.2564 C   0  0  0  0  0  0  0  0  0  0  0  0
    1.6359    5.6874   18.9842 O   0  0  0  0  0  0  0  0  0  0  0  0
    3.4948    6.5751   20.9679 C   0  0  0  0  0  0  0  0  0  0  0  0
    1.3735    3.2039   15.5908 N   0  0  0  0  0  0  0  0  0  0  0  0
    1.2548    2.1078   16.5886 C   0  0  0  0  0  0  0  0  0  0  0  0
    1.0670    0.7696   15.8678 C   0  0  0  0  0  0  0  0  0  0  0  0
    1.1093   -0.3320   16.8556 N   0  0  0  0  0  0  0  0  0  0  0  0
    2.5258   -0.5926   17.2421 C   0  0  0  0  0  0  0  0  0  0  0  0
    0.4996   -1.5541   16.2591 C   0  0  0  0  0  0  0  0  0  0  0  0
    2.5740   -1.7390   18.2651 C   0  0  0  0  0  0  0  0  0  0  0  0
    0.5507   -2.7038   17.2814 C   0  0  0  0  0  0  0  0  0  0  0  0
    1.9655   -2.9619   17.6688 N   0  0  0  0  0  0  0  0  0  0  0  0
   -2.1038    5.3871   18.5885 C   0  0  0  0  0  0  0  0  0  0  0  0
   -7.1622    3.7014   14.8927 N   0  0  0  0  0  0  0  0  0  0  0  0
   -2.2023    4.8334   17.2896 C   0  0  0  0  0  0  0  0  0  0  0  0
   -1.0235    4.5490   16.5500 C   0  0  0  0  0  0  0  0  0  0  0  0
    0.2554    4.8158   17.1113 C   0  0  0  0  0  0  0  0  0  0  0  0
    0.3521    5.3893   18.4147 C   0  0  0  0  0  0  0  0  0  0  0  0
   -0.8312    5.6690   19.1516 C   0  0  0  0  0  0  0  0  0  0  0  0
   -6.6705    3.4194   13.5980 C   0  0  0  0  0  0  0  0  0  0  0  0
   -5.2669    3.5767   13.5453 C   0  0  0  0  0  0  0  0  0  0  0  0
   -3.5899    4.2297   15.3687 C   0  0  0  0  0  0  0  0  0  0  0  0
   -3.4668    4.5745   16.7422 C   0  0  0  0  0  0  0  0  0  0  0  0
   -4.6270    4.6493   17.5610 C   0  0  0  0  0  0  0  0  0  0  0  0
   -5.9072    4.3775   17.0071 C   0  0  0  0  0  0  0  0  0  0  0  0
   -6.0263    4.0174   15.6283 C   0  0  0  0  0  0  0  0  0  0  0  0
   -4.8796    3.9434   14.8165 C   0  0  0  0  0  0  0  0  0  0  0  0
  1  6  1  0  0  0  0
  2  4  1  0  0  0  0
  3  7  1  0  0  0  0
  4  5  1  0  0  0  0
  6  2  1  0  0  0  0
  7  8  1  0  0  0  0
  8  9  1  0  0  0  0
  9 10  1  0  0  0  0
 10 11  1  0  0  0  0
 10 12  1  0  0  0  0
 11 13  1  0  0  0  0
 13 15  1  0  0  0  0
 14 12  1  0  0  0  0
 15 14  1  0  0  0  0
 16 18  2  0  0  0  0
 16 22  1  0  0  0  0
 17 23  1  0  0  0  0
 17 29  1  0  0  0  0
 18 19  1  0  0  0  0
 18 26  1  0  0  0  0
 19 20  2  0  0  0  0
 20  3  1  0  0  0  0
 20 21  1  0  0  0  0
 21  5  1  0  0  0  0
 21 22  2  0  0  0  0
 23 24  2  0  0  0  0
 24 30  1  0  0  0  0
 25 26  2  0  0  0  0
 25 30  1  0  0  0  0
 26 27  1  0  0  0  0
 27 28  2  0  0  0  0
 28 29  1  0  0  0  0
 29 30  2  0  0  0  0
M  END
>  <CHROM.1>
61.46214005,-57.82929539,-63.80415149,-174.22533184,-65.85303218,178.62711916
173.39832930,-77.30322214,169.61390880,-41.56432745,119.30269128,-0.71053465
3.32558784,17.23739529,0.01804069,-0.43599882,0.33908392

>  <Name>
1uts_lig

>  <RI>
0

>  <Rbt.Current_Directory>
/home/itssahil/PROJECTS/Mol_Feturizer/New_Systems/rnas/1uts

>  <Rbt.Executable>
rbdock ($Id: //depot/dev/client3/rdock/2013.1/src/exe/rbdock.cxx#4 $)

>  <Rbt.Library>
libRbt.so (2013.1, Build901 2013/11/27)

>  <Rbt.Parameter_File>
/export/apps/rDock/src/rDock_2013.1_src/data/scripts/dock_solv.prm

>  <Rbt.Receptor>
prm/pocket_docking_4.prm

>  <SCORE>
-27.6683

>  <SCORE.INTER>
-24.7888

>  <SCORE.INTER.CONST>
1

>  <SCORE.INTER.POLAR>
-0.8

>  <SCORE.INTER.ROT>
10

>  <SCORE.INTER.SOLV>
8.33122

>  <SCORE.INTER.VDW>
-26.9029

>  <SCORE.INTER.norm>
-0.826292

>  <SCORE.INTRA>
-2.90662

>  <SCORE.INTRA.DIHEDRAL>
-12.258

>  <SCORE.INTRA.DIHEDRAL.0>
18.0451

>  <SCORE.INTRA.POLAR>
0.196815

>  <SCORE.INTRA.POLAR.0>
-0.196815

>  <SCORE.INTRA.REPUL>
0

>  <SCORE.INTRA.REPUL.0>
0

>  <SCORE.INTRA.SOLV>
-0.321845

>  <SCORE.INTRA.SOLV.lig_0>
-14.7906

>  <SCORE.INTRA.VDW>
2.71412

>  <SCORE.INTRA.VDW.0>
-0.411701

>  <SCORE.INTRA.norm>
-0.0968872

>  <SCORE.RESTR>
0.0270397

>  <SCORE.RESTR.CAVITY>
0.0270397

>  <SCORE.RESTR.norm>
0.000901324

>  <SCORE.SYSTEM>
0

>  <SCORE.SYSTEM.CONST>
0

>  <SCORE.SYSTEM.DIHEDRAL>
0

>  <SCORE.SYSTEM.SOLV>
0

>  <SCORE.SYSTEM.norm>
0

>  <SCORE.heavy>
30

>  <SCORE.norm>
-0.922278

>  <RMSD>
2.966

$$$$
1uts_lig
 OpenBabel11021811413D
libRbt.so/2013.1/901 2013/11/27
 30 33  0  0  0  0  0  0  0  0999 V2000
    1.8019    3.3882   20.9411 N   0  0  0  0  0  0  0  0  0  0  0  0
    0.7332    2.8843   18.7868 C   0  0  0  0  0  0  0  0  0  0  0  0
    0.0406    0.2246   16.2259 C   0  0  0  0  0  0  0  0  0  0  0  0
    1.9176    3.2682   17.8950 C   0  0  0  0  0  0  0  0  0  0  0  0
    1.9241    2.4342   16.7270 O   0  0  0  0  0  0  0  0  0  0  0  0
    0.7106    3.7851   20.0230 C   0  0  0  0  0  0  0  0  0  0  0  0
    1.4427   -0.2046   16.0210 N   0  0  0  0  0  0  0  0  0  0  0  0
    1.9011   -0.9950   17.1940 C   0  0  0  0  0  0  0  0  0  0  0  0
    1.2868   -2.3971   17.1458 C   0  0  0  0  0  0  0  0  0  0  0  0
    1.8115   -3.2038   18.2704 N   0  0  0  0  0  0  0  0  0  0  0  0
    2.4963   -4.4137   17.7311 C   0  0  0  0  0  0  0  0  0  0  0  0
    0.6854   -3.5981   19.1633 C   0  0  0  0  0  0  0  0  0  0  0  0
    3.0394   -5.2561   18.8967 C   0  0  0  0  0  0  0  0  0  0  0  0
    1.2275   -4.4450   20.3289 C   0  0  0  0  0  0  0  0  0  0  0  0
    1.9134   -5.6519   19.7893 N   0  0  0  0  0  0  0  0  0  0  0  0
   -0.6072    4.2397   14.5906 C   0  0  0  0  0  0  0  0  0  0  0  0
   -5.8581    4.2449   10.8795 N   0  0  0  0  0  0  0  0  0  0  0  0
   -1.5270    3.2008   14.3115 C   0  0  0  0  0  0  0  0  0  0  0  0
   -1.3108    1.9019   14.8442 C   0  0  0  0  0  0  0  0  0  0  0  0
   -0.1751    1.6426   15.6596 C   0  0  0  0  0  0  0  0  0  0  0  0
    0.7597    2.6876   15.9263 C   0  0  0  0  0  0  0  0  0  0  0  0
    0.5366    3.9866   15.3930 C   0  0  0  0  0  0  0  0  0  0  0  0
   -5.1003    4.4994    9.7139 C   0  0  0  0  0  0  0  0  0  0  0  0
   -3.7158    4.3964    9.9790 C   0  0  0  0  0  0  0  0  0  0  0  0
   -2.4677    3.8151   12.1396 C   0  0  0  0  0  0  0  0  0  0  0  0
   -2.6436    3.4636   13.5056 C   0  0  0  0  0  0  0  0  0  0  0  0
   -3.9538    3.3723   14.0509 C   0  0  0  0  0  0  0  0  0  0  0  0
   -5.0852    3.6300   13.2306 C   0  0  0  0  0  0  0  0  0  0  0  0
   -4.9055    3.9698   11.8532 C   0  0  0  0  0  0  0  0  0  0  0  0
   -3.6100    4.0612   11.3120 C   0  0  0  0  0  0  0  0  0  0  0  0
  1  6  1  0  0  0  0
  2  4  1  0  0  0  0
  3  7  1  0  0  0  0
  4  5  1  0  0  0  0
  6  2  1  0  0  0  0
  7  8  1  0  0  0  0
  8  9  1  0  0  0  0
  9 10  1  0  0  0  0
 10 11  1  0  0  0  0
 10 12  1  0  0  0  0
 11 13  1  0  0  0  0
 13 15  1  0  0  0  0
 14 12  1  0  0  0  0
 15 14  1  0  0  0  0
 16 18  2  0  0  0  0
 16 22  1  0  0  0  0
 17 23  1  0  0  0  0
 17 29  1  0  0  0  0
 18 19  1  0  0  0  0
 18 26  1  0  0  0  0
 19 20  2  0  0  0  0
 20  3  1  0  0  0  0
 20 21  1  0  0  0  0
 21  5  1  0  0  0  0
 21 22  2  0  0  0  0
 23 24  2  0  0  0  0
 24 30  1  0  0  0  0
 25 26  2  0  0  0  0
 25 30  1  0  0  0  0
 26 27  1  0  0  0  0
 27 28  2  0  0  0  0
 28 29  1  0  0  0  0
 29 30  2  0  0  0  0
M  END
>  <CHROM.1>
58.31859663,-179.16084754,142.94411539,65.01635909,-73.46643202,75.35827930
176.59631524,-121.12412039,64.92511356,133.18507003,-119.53189964,-0.42686649
1.16955663,15.92265284,-0.60063400,-0.91409045,0.07349829

>  <Name>
1uts_lig

>  <RI>
0

>  <Rbt.Current_Directory>
/home/itssahil/PROJECTS/Mol_Feturizer/New_Systems/rnas/1uts

>  <Rbt.Executable>
rbdock ($Id: //depot/dev/client3/rdock/2013.1/src/exe/rbdock.cxx#4 $)

>  <Rbt.Library>
libRbt.so (2013.1, Build901 2013/11/27)

>  <Rbt.Parameter_File>
/export/apps/rDock/src/rDock_2013.1_src/data/scripts/dock_solv.prm

>  <Rbt.Receptor>
prm/pocket_docking_5.prm

>  <SCORE>
-24.7946

>  <SCORE.INTER>
-23.1184

>  <SCORE.INTER.CONST>
1

>  <SCORE.INTER.POLAR>
-0.748331

>  <SCORE.INTER.ROT>
10

>  <SCORE.INTER.SOLV>
11.6085

>  <SCORE.INTER.VDW>
-27.054

>  <SCORE.INTER.norm>
-0.770613

>  <SCORE.INTRA>
-1.67621

>  <SCORE.INTRA.DIHEDRAL>
-2.31801

>  <SCORE.INTRA.DIHEDRAL.0>
18.0451

>  <SCORE.INTRA.POLAR>
-0.418174

>  <SCORE.INTRA.POLAR.0>
-0.196815

>  <SCORE.INTRA.REPUL>
0

>  <SCORE.INTRA.REPUL.0>
0

>  <SCORE.INTRA.SOLV>
-0.258658

>  <SCORE.INTRA.SOLV.lig_0>
-14.7906

>  <SCORE.INTRA.VDW>
1.03391

>  <SCORE.INTRA.VDW.0>
-0.411701

>  <SCORE.INTRA.norm>
-0.0558738

>  <SCORE.RESTR>
0

>  <SCORE.RESTR.CAVITY>
0

>  <SCORE.RESTR.norm>
0

>  <SCORE.SYSTEM>
0

>  <SCORE.SYSTEM.CONST>
0

>  <SCORE.SYSTEM.DIHEDRAL>
0

>  <SCORE.SYSTEM.SOLV>
0

>  <SCORE.SYSTEM.norm>
0

>  <SCORE.heavy>
30

>  <SCORE.norm>
-0.826486

>  <RMSD>
3.047

$$$$
1uts_lig
 OpenBabel11021811413D
libRbt.so/2013.1/901 2013/11/27
 30 33  0  0  0  0  0  0  0  0999 V2000
    5.6706    5.2445   17.1283 N   0  0  0  0  0  0  0  0  0  0  0  0
    3.9103    3.5583   16.8197 C   0  0  0  0  0  0  0  0  0  0  0  0
    0.2562    1.0300   16.9341 C   0  0  0  0  0  0  0  0  0  0  0  0
    2.3991    3.3274   16.9103 C   0  0  0  0  0  0  0  0  0  0  0  0
    1.8729    3.0975   15.5950 O   0  0  0  0  0  0  0  0  0  0  0  0
    4.2105    5.0496   16.9810 C   0  0  0  0  0  0  0  0  0  0  0  0
    1.0007    0.2038   15.9567 N   0  0  0  0  0  0  0  0  0  0  0  0
    2.4248    0.0988   16.3715 C   0  0  0  0  0  0  0  0  0  0  0  0
    2.5222   -0.6502   17.7038 C   0  0  0  0  0  0  0  0  0  0  0  0
    2.1926   -2.0775   17.4917 N   0  0  0  0  0  0  0  0  0  0  0  0
    0.7407   -2.2921   17.7556 C   0  0  0  0  0  0  0  0  0  0  0  0
    3.0171   -2.9163   18.4068 C   0  0  0  0  0  0  0  0  0  0  0  0
    0.3954   -3.7745   17.5400 C   0  0  0  0  0  0  0  0  0  0  0  0
    2.6695   -4.4008   18.1945 C   0  0  0  0  0  0  0  0  0  0  0  0
    1.2188   -4.6138   18.4559 N   0  0  0  0  0  0  0  0  0  0  0  0
   -1.5763    4.4838   14.9521 C   0  0  0  0  0  0  0  0  0  0  0  0
   -7.9872    3.9273   15.2333 N   0  0  0  0  0  0  0  0  0  0  0  0
   -2.3894    3.5030   15.5687 C   0  0  0  0  0  0  0  0  0  0  0  0
   -1.7892    2.3861   16.2088 C   0  0  0  0  0  0  0  0  0  0  0  0
   -0.3739    2.2516   16.2349 C   0  0  0  0  0  0  0  0  0  0  0  0
    0.4436    3.2332   15.5984 C   0  0  0  0  0  0  0  0  0  0  0  0
   -0.1627    4.3507   14.9619 C   0  0  0  0  0  0  0  0  0  0  0  0
   -8.1195    3.4531   13.9084 C   0  0  0  0  0  0  0  0  0  0  0  0
   -6.8562    3.1505   13.3516 C   0  0  0  0  0  0  0  0  0  0  0  0
   -4.5064    3.3019   14.3614 C   0  0  0  0  0  0  0  0  0  0  0  0
   -3.7842    3.6417   15.5376 C   0  0  0  0  0  0  0  0  0  0  0  0
   -4.4793    4.1156   16.6841 C   0  0  0  0  0  0  0  0  0  0  0  0
   -5.8940    4.2470   16.6543 C   0  0  0  0  0  0  0  0  0  0  0  0
   -6.6190    3.8911   15.4741 C   0  0  0  0  0  0  0  0  0  0  0  0
   -5.9330    3.4226   14.3387 C   0  0  0  0  0  0  0  0  0  0  0  0
  1  6  1  0  0  0  0
  2  4  1  0  0  0  0
  3  7  1  0  0  0  0
  4  5  1  0  0  0  0
  6  2  1  0  0  0  0
  7  8  1  0  0  0  0
  8  9  1  0  0  0  0
  9 10  1  0  0  0  0
 10 11  1  0  0  0  0
 10 12  1  0  0  0  0
 11 13  1  0  0  0  0
 13 15  1  0  0  0  0
 14 12  1  0  0  0  0
 15 14  1  0  0  0  0
 16 18  2  0  0  0  0
 16 22  1  0  0  0  0
 17 23  1  0  0  0  0
 17 29  1  0  0  0  0
 18 19  1  0  0  0  0
 18 26  1  0  0  0  0
 19 20  2  0  0  0  0
 20  3  1  0  0  0  0
 20 21  1  0  0  0  0
 21  5  1  0  0  0  0
 21 22  2  0  0  0  0
 23 24  2  0  0  0  0
 24 30  1  0  0  0  0
 25 26  2  0  0  0  0
 25 30  1  0  0  0  0
 26 27  1  0  0  0  0
 27 28  2  0  0  0  0
 28 29  1  0  0  0  0
 29 30  2  0  0  0  0
M  END
>  <CHROM.1>
-65.20876551,103.91727377,121.14055202,-164.64216256,170.27946054,64.37336464
70.40402948,-93.38032640,78.53910659,116.96329015,-70.90695967,-0.65052677
1.71223638,16.30082379,-0.51967331,-0.17457768,-0.21742771

>  <Name>
1uts_lig

>  <RI>
0

>  <Rbt.Current_Directory>
/home/itssahil/PROJECTS/Mol_Feturizer/New_Systems/rnas/1uts

>  <Rbt.Executable>
rbdock ($Id: //depot/dev/client3/rdock/2013.1/src/exe/rbdock.cxx#4 $)

>  <Rbt.Library>
libRbt.so (2013.1, Build901 2013/11/27)

>  <Rbt.Parameter_File>
/export/apps/rDock/src/rDock_2013.1_src/data/scripts/dock_solv.prm

>  <Rbt.Receptor>
prm/pocket_docking_4.prm

>  <SCORE>
-29.3759

>  <SCORE.INTER>
-32.6599

>  <SCORE.INTER.CONST>
1

>  <SCORE.INTER.POLAR>
-2.17816

>  <SCORE.INTER.ROT>
10

>  <SCORE.INTER.SOLV>
10.1409

>  <SCORE.INTER.VDW>
-28.1597

>  <SCORE.INTER.norm>
-1.08866

>  <SCORE.INTRA>
3.20224

>  <SCORE.INTRA.DIHEDRAL>
3.89658

>  <SCORE.INTRA.DIHEDRAL.0>
18.0451

>  <SCORE.INTRA.POLAR>
0.196815

>  <SCORE.INTRA.POLAR.0>
-0.196815

>  <SCORE.INTRA.REPUL>
0

>  <SCORE.INTRA.REPUL.0>
0

>  <SCORE.INTRA.SOLV>
-0.0393844

>  <SCORE.INTRA.SOLV.lig_0>
-14.7906

>  <SCORE.INTRA.VDW>
0.604471

>  <SCORE.INTRA.VDW.0>
-0.411701

>  <SCORE.INTRA.norm>
0.106741

>  <SCORE.RESTR>
0.0817483

>  <SCORE.RESTR.CAVITY>
0.0817483

>  <SCORE.RESTR.norm>
0.00272494

>  <SCORE.SYSTEM>
0

>  <SCORE.SYSTEM.CONST>
0

>  <SCORE.SYSTEM.DIHEDRAL>
0

>  <SCORE.SYSTEM.SOLV>
0

>  <SCORE.SYSTEM.norm>
0

>  <SCORE.heavy>
30

>  <SCORE.norm>
-0.979196

>  <RMSD>
3.073

$$$$
1uts_lig
 OpenBabel11021811413D
libRbt.so/2013.1/901 2013/11/27
 30 33  0  0  0  0  0  0  0  0999 V2000
    0.6128    7.6315   18.3573 N   0  0  0  0  0  0  0  0  0  0  0  0
    1.2642    5.6124   19.5967 C   0  0  0  0  0  0  0  0  0  0  0  0
    0.7277    2.6632   15.5306 C   0  0  0  0  0  0  0  0  0  0  0  0
    0.8310    4.4724   18.6705 C   0  0  0  0  0  0  0  0  0  0  0  0
    0.6387    4.9841   17.3434 O   0  0  0  0  0  0  0  0  0  0  0  0
    0.2577    6.7604   19.5004 C   0  0  0  0  0  0  0  0  0  0  0  0
    1.2682    1.9241   16.6941 N   0  0  0  0  0  0  0  0  0  0  0  0
    1.3716    0.4778   16.3647 C   0  0  0  0  0  0  0  0  0  0  0  0
    2.1136   -0.2567   17.4852 C   0  0  0  0  0  0  0  0  0  0  0  0
    1.9107   -1.7153   17.3368 N   0  0  0  0  0  0  0  0  0  0  0  0
    0.4693   -2.0356   17.5459 C   0  0  0  0  0  0  0  0  0  0  0  0
    2.7533   -2.4354   18.3330 C   0  0  0  0  0  0  0  0  0  0  0  0
    0.2552   -3.5506   17.3963 C   0  0  0  0  0  0  0  0  0  0  0  0
    2.5369   -3.9524   18.1866 C   0  0  0  0  0  0  0  0  0  0  0  0
    1.0968   -4.2712   18.3932 N   0  0  0  0  0  0  0  0  0  0  0  0
   -3.0389    4.6482   16.5730 C   0  0  0  0  0  0  0  0  0  0  0  0
   -7.9126    1.5892   13.6774 N   0  0  0  0  0  0  0  0  0  0  0  0
   -3.0373    3.5469   15.6839 C   0  0  0  0  0  0  0  0  0  0  0  0
   -1.8132    2.9086   15.3500 C   0  0  0  0  0  0  0  0  0  0  0  0
   -0.5896    3.3702   15.9083 C   0  0  0  0  0  0  0  0  0  0  0  0
   -0.5917    4.4911   16.7919 C   0  0  0  0  0  0  0  0  0  0  0  0
   -1.8205    5.1242   17.1249 C   0  0  0  0  0  0  0  0  0  0  0  0
   -8.0120    0.4638   14.5267 C   0  0  0  0  0  0  0  0  0  0  0  0
   -6.8942    0.3802   15.3875 C   0  0  0  0  0  0  0  0  0  0  0  0
   -4.8542    1.9113   15.6294 C   0  0  0  0  0  0  0  0  0  0  0  0
   -4.2474    3.0983   15.1362 C   0  0  0  0  0  0  0  0  0  0  0  0
   -4.8731    3.8332   14.0918 C   0  0  0  0  0  0  0  0  0  0  0  0
   -6.1044    3.3824   13.5439 C   0  0  0  0  0  0  0  0  0  0  0  0
   -6.7194    2.1954   14.0517 C   0  0  0  0  0  0  0  0  0  0  0  0
   -6.1015    1.4668   15.0845 C   0  0  0  0  0  0  0  0  0  0  0  0
  1  6  1  0  0  0  0
  2  4  1  0  0  0  0
  3  7  1  0  0  0  0
  4  5  1  0  0  0  0
  6  2  1  0  0  0  0
  7  8  1  0  0  0  0
  8  9  1  0  0  0  0
  9 10  1  0  0  0  0
 10 11  1  0  0  0  0
 10 12  1  0  0  0  0
 11 13  1  0  0  0  0
 13 15  1  0  0  0  0
 14 12  1  0  0  0  0
 15 14  1  0  0  0  0
 16 18  2  0  0  0  0
 16 22  1  0  0  0  0
 17 23  1  0  0  0  0
 17 29  1  0  0  0  0
 18 19  1  0  0  0  0
 18 26  1  0  0  0  0
 19 20  2  0  0  0  0
 20  3  1  0  0  0  0
 20 21  1  0  0  0  0
 21  5  1  0  0  0  0
 21 22  2  0  0  0  0
 23 24  2  0  0  0  0
 24 30  1  0  0  0  0
 25 26  2  0  0  0  0
 25 30  1  0  0  0  0
 26 27  1  0  0  0  0
 27 28  2  0  0  0  0
 28 29  1  0  0  0  0
 29 30  2  0  0  0  0
M  END
>  <CHROM.1>
-170.72188043,53.81793303,120.07876761,-134.05777487,-85.33663145,171.91603870
165.37011111,-65.25280409,-104.18392113,-110.78754001,-98.26295897,-1.45301358
1.92545985,16.58667535,-2.74395199,0.42319815,-3.06728459

>  <Name>
1uts_lig

>  <RI>
0

>  <Rbt.Current_Directory>
/home/itssahil/PROJECTS/Mol_Feturizer/New_Systems/rnas/1uts

>  <Rbt.Executable>
rbdock ($Id: //depot/dev/client3/rdock/2013.1/src/exe/rbdock.cxx#4 $)

>  <Rbt.Library>
libRbt.so (2013.1, Build901 2013/11/27)

>  <Rbt.Parameter_File>
/export/apps/rDock/src/rDock_2013.1_src/data/scripts/dock_solv.prm

>  <Rbt.Receptor>
prm/pocket_docking_4.prm

>  <SCORE>
-22.5084

>  <SCORE.INTER>
-23.8447

>  <SCORE.INTER.CONST>
1

>  <SCORE.INTER.POLAR>
-2.40145

>  <SCORE.INTER.ROT>
10

>  <SCORE.INTER.SOLV>
7.17695

>  <SCORE.INTER.VDW>
-20.5506

>  <SCORE.INTER.norm>
-0.794825

>  <SCORE.INTRA>
1.31089

>  <SCORE.INTRA.DIHEDRAL>
5.19651

>  <SCORE.INTRA.DIHEDRAL.0>
18.0451

>  <SCORE.INTRA.POLAR>
-0.225043

>  <SCORE.INTRA.POLAR.0>
-0.196815

>  <SCORE.INTRA.REPUL>
0

>  <SCORE.INTRA.REPUL.0>
0

>  <SCORE.INTRA.SOLV>
0.181607

>  <SCORE.INTRA.SOLV.lig_0>
-14.7906

>  <SCORE.INTRA.VDW>
-0.613026

>  <SCORE.INTRA.VDW.0>
-0.411701

>  <SCORE.INTRA.norm>
0.0436962

>  <SCORE.RESTR>
0.0254843

>  <SCORE.RESTR.CAVITY>
0.0254843

>  <SCORE.RESTR.norm>
0.000849477

>  <SCORE.SYSTEM>
0

>  <SCORE.SYSTEM.CONST>
0

>  <SCORE.SYSTEM.DIHEDRAL>
0

>  <SCORE.SYSTEM.SOLV>
0

>  <SCORE.SYSTEM.norm>
0

>  <SCORE.heavy>
30

>  <SCORE.norm>
-0.750279

>  <RMSD>
3.080

$$$$
1uts_lig
 OpenBabel11021811413D
libRbt.so/2013.1/901 2013/11/27
 30 33  0  0  0  0  0  0  0  0999 V2000
    3.7061    3.2060   19.0226 N   0  0  0  0  0  0  0  0  0  0  0  0
    4.7722    3.2611   16.8095 C   0  0  0  0  0  0  0  0  0  0  0  0
    0.7093    0.3704   16.1527 C   0  0  0  0  0  0  0  0  0  0  0  0
    3.4853    3.3946   15.9903 C   0  0  0  0  0  0  0  0  0  0  0  0
    2.4174    2.7154   16.6671 O   0  0  0  0  0  0  0  0  0  0  0  0
    4.6061    3.9881   18.1452 C   0  0  0  0  0  0  0  0  0  0  0  0
    0.4069   -0.6145   15.0894 N   0  0  0  0  0  0  0  0  0  0  0  0
   -0.6453   -1.5534   15.5610 C   0  0  0  0  0  0  0  0  0  0  0  0
   -0.0913   -2.9809   15.5882 C   0  0  0  0  0  0  0  0  0  0  0  0
    0.7133   -3.1736   16.8156 N   0  0  0  0  0  0  0  0  0  0  0  0
    1.6666   -4.3013   16.6074 C   0  0  0  0  0  0  0  0  0  0  0  0
   -0.1946   -3.4648   17.9609 C   0  0  0  0  0  0  0  0  0  0  0  0
    2.5015   -4.5070   17.8817 C   0  0  0  0  0  0  0  0  0  0  0  0
    0.6406   -3.6747   19.2369 C   0  0  0  0  0  0  0  0  0  0  0  0
    1.5941   -4.7995   19.0273 N   0  0  0  0  0  0  0  0  0  0  0  0
   -0.4124    4.3931   14.8207 C   0  0  0  0  0  0  0  0  0  0  0  0
   -5.8963    4.0963   11.4699 N   0  0  0  0  0  0  0  0  0  0  0  0
   -1.2525    3.2898   14.5377 C   0  0  0  0  0  0  0  0  0  0  0  0
   -0.8828    1.9888   14.9718 C   0  0  0  0  0  0  0  0  0  0  0  0
    0.3270    1.7917   15.6925 C   0  0  0  0  0  0  0  0  0  0  0  0
    1.1807    2.9032   15.9626 C   0  0  0  0  0  0  0  0  0  0  0  0
    0.8040    4.2036   15.5282 C   0  0  0  0  0  0  0  0  0  0  0  0
   -5.2499    4.3841   10.2463 C   0  0  0  0  0  0  0  0  0  0  0  0
   -3.8450    4.3531   10.3977 C   0  0  0  0  0  0  0  0  0  0  0  0
   -2.3970    3.8457   12.4495 C   0  0  0  0  0  0  0  0  0  0  0  0
   -2.4430    3.4917   13.8254 C   0  0  0  0  0  0  0  0  0  0  0  0
   -3.6981    3.3361   14.4757 C   0  0  0  0  0  0  0  0  0  0  0  0
   -4.9042    3.5320   13.7502 C   0  0  0  0  0  0  0  0  0  0  0  0
   -4.8548    3.8745   12.3627 C   0  0  0  0  0  0  0  0  0  0  0  0
   -3.6140    4.0295   11.7178 C   0  0  0  0  0  0  0  0  0  0  0  0
  1  6  1  0  0  0  0
  2  4  1  0  0  0  0
  3  7  1  0  0  0  0
  4  5  1  0  0  0  0
  6  2  1  0  0  0  0
  7  8  1  0  0  0  0
  8  9  1  0  0  0  0
  9 10  1  0  0  0  0
 10 11  1  0  0  0  0
 10 12  1  0  0  0  0
 11 13  1  0  0  0  0
 13 15  1  0  0  0  0
 14 12  1  0  0  0  0
 15 14  1  0  0  0  0
 16 18  2  0  0  0  0
 16 22  1  0  0  0  0
 17 23  1  0  0  0  0
 17 29  1  0  0  0  0
 18 19  1  0  0  0  0
 18 26  1  0  0  0  0
 19 20  2  0  0  0  0
 20  3  1  0  0  0  0
 20 21  1  0  0  0  0
 21  5  1  0  0  0  0
 21 22  2  0  0  0  0
 23 24  2  0  0  0  0
 24 30  1  0  0  0  0
 25 26  2  0  0  0  0
 25 30  1  0  0  0  0
 26 27  1  0  0  0  0
 27 28  2  0  0  0  0
 28 29  1  0  0  0  0
 29 30  2  0  0  0  0
M  END
>  <CHROM.1>
-48.90809204,-64.79650149,-115.77553154,176.14000856,73.05964636,-118.25580486
80.13596373,-157.73868971,69.27120363,41.06448050,132.70084366,-0.23249304
1.25221915,15.41491384,-0.83096523,-0.56472249,-0.26699595

>  <Name>
1uts_lig

>  <RI>
0

>  <Rbt.Current_Directory>
/home/itssahil/PROJECTS/Mol_Feturizer/New_Systems/rnas/1uts

>  <Rbt.Executable>
rbdock ($Id: //depot/dev/client3/rdock/2013.1/src/exe/rbdock.cxx#4 $)

>  <Rbt.Library>
libRbt.so (2013.1, Build901 2013/11/27)

>  <Rbt.Parameter_File>
/export/apps/rDock/src/rDock_2013.1_src/data/scripts/dock_solv.prm

>  <Rbt.Receptor>
prm/pocket_docking_5.prm

>  <SCORE>
-33.9464

>  <SCORE.INTER>
-33.8642

>  <SCORE.INTER.CONST>
1

>  <SCORE.INTER.POLAR>
-1.75161

>  <SCORE.INTER.ROT>
10

>  <SCORE.INTER.SOLV>
12.6721

>  <SCORE.INTER.VDW>
-31.2281

>  <SCORE.INTER.norm>
-1.12881

>  <SCORE.INTRA>
-0.150633

>  <SCORE.INTRA.DIHEDRAL>
0.110401

>  <SCORE.INTRA.DIHEDRAL.0>
18.0451

>  <SCORE.INTRA.POLAR>
-0.510005

>  <SCORE.INTRA.POLAR.0>
-0.196815

>  <SCORE.INTRA.REPUL>
0

>  <SCORE.INTRA.REPUL.0>
0

>  <SCORE.INTRA.SOLV>
0.111657

>  <SCORE.INTRA.SOLV.lig_0>
-14.7906

>  <SCORE.INTRA.VDW>
1.47236

>  <SCORE.INTRA.VDW.0>
-0.411701

>  <SCORE.INTRA.norm>
-0.00502111

>  <SCORE.RESTR>
0.0684067

>  <SCORE.RESTR.CAVITY>
0.0684067

>  <SCORE.RESTR.norm>
0.00228022

>  <SCORE.SYSTEM>
0

>  <SCORE.SYSTEM.CONST>
0

>  <SCORE.SYSTEM.DIHEDRAL>
0

>  <SCORE.SYSTEM.SOLV>
0

>  <SCORE.SYSTEM.norm>
0

>  <SCORE.heavy>
30

>  <SCORE.norm>
-1.13155

>  <RMSD>
3.316

$$$$
1uts_lig
 OpenBabel11021811413D
libRbt.so/2013.1/901 2013/11/27
 30 33  0  0  0  0  0  0  0  0999 V2000
    4.5376    5.0471   15.1676 N   0  0  0  0  0  0  0  0  0  0  0  0
    4.5507    3.1541   16.7341 C   0  0  0  0  0  0  0  0  0  0  0  0
    0.8660    0.6621   15.8404 C   0  0  0  0  0  0  0  0  0  0  0  0
    3.0367    2.9250   16.7568 C   0  0  0  0  0  0  0  0  0  0  0  0
    2.5132    3.0700   15.4283 O   0  0  0  0  0  0  0  0  0  0  0  0
    4.8398    4.6463   16.5603 C   0  0  0  0  0  0  0  0  0  0  0  0
   -0.1515   -0.3816   15.5808 N   0  0  0  0  0  0  0  0  0  0  0  0
    0.4017   -1.7176   15.9271 C   0  0  0  0  0  0  0  0  0  0  0  0
    0.5481   -1.8395   17.4467 C   0  0  0  0  0  0  0  0  0  0  0  0
    0.9909   -3.2093   17.7906 N   0  0  0  0  0  0  0  0  0  0  0  0
    0.4103   -3.5982   19.1081 C   0  0  0  0  0  0  0  0  0  0  0  0
    2.4796   -3.2480   17.8466 C   0  0  0  0  0  0  0  0  0  0  0  0
    0.8713   -5.0193   19.4705 C   0  0  0  0  0  0  0  0  0  0  0  0
    2.9422   -4.6697   18.2131 C   0  0  0  0  0  0  0  0  0  0  0  0
    2.3601   -5.0583   19.5278 N   0  0  0  0  0  0  0  0  0  0  0  0
   -0.9187    4.6335   15.3328 C   0  0  0  0  0  0  0  0  0  0  0  0
   -7.3452    3.9938   15.3303 N   0  0  0  0  0  0  0  0  0  0  0  0
   -1.7461    3.4990   15.5105 C   0  0  0  0  0  0  0  0  0  0  0  0
   -1.1612    2.2150   15.6740 C   0  0  0  0  0  0  0  0  0  0  0  0
    0.2528    2.0658   15.6628 C   0  0  0  0  0  0  0  0  0  0  0  0
    1.0848    3.2089   15.4671 C   0  0  0  0  0  0  0  0  0  0  0  0
    0.4939    4.4922   15.3071 C   0  0  0  0  0  0  0  0  0  0  0  0
   -7.5161    3.5612   13.9957 C   0  0  0  0  0  0  0  0  0  0  0  0
   -6.2707    3.2619   13.3981 C   0  0  0  0  0  0  0  0  0  0  0  0
   -3.8948    3.3573   14.3519 C   0  0  0  0  0  0  0  0  0  0  0  0
   -3.1395    3.6537   15.5190 C   0  0  0  0  0  0  0  0  0  0  0  0
   -3.8001    4.1002   16.6965 C   0  0  0  0  0  0  0  0  0  0  0  0
   -5.2135    4.2477   16.7066 C   0  0  0  0  0  0  0  0  0  0  0  0
   -5.9719    3.9355   15.5352 C   0  0  0  0  0  0  0  0  0  0  0  0
   -5.3200    3.4941   14.3691 C   0  0  0  0  0  0  0  0  0  0  0  0
  1  6  1  0  0  0  0
  2  4  1  0  0  0  0
  3  7  1  0  0  0  0
  4  5  1  0  0  0  0
  6  2  1  0  0  0  0
  7  8  1  0  0  0  0
  8  9  1  0  0  0  0
  9 10  1  0  0  0  0
 10 11  1  0  0  0  0
 10 12  1  0  0  0  0
 11 13  1  0  0  0  0
 13 15  1  0  0  0  0
 14 12  1  0  0  0  0
 15 14  1  0  0  0  0
 16 18  2  0  0  0  0
 16 22  1  0  0  0  0
 17 23  1  0  0  0  0
 17 29  1  0  0  0  0
 18 19  1  0  0  0  0
 18 26  1  0  0  0  0
 19 20  2  0  0  0  0
 20  3  1  0  0  0  0
 20 21  1  0  0  0  0
 21  5  1  0  0  0  0
 21 22  2  0  0  0  0
 23 24  2  0  0  0  0
 24 30  1  0  0  0  0
 25 26  2  0  0  0  0
 25 30  1  0  0  0  0
 26 27  1  0  0  0  0
 27 28  2  0  0  0  0
 28 29  1  0  0  0  0
 29 30  2  0  0  0  0
M  END
>  <CHROM.1>
168.94911627,73.95614718,-172.65192906,-164.96327046,-73.09073925,70.38352971
175.28309144,-147.44185376,99.77481761,17.63966509,-77.77753658,-0.47826849
1.37211606,16.25617437,-0.78182943,-0.10128257,-0.33319281

>  <Name>
1uts_lig

>  <RI>
0

>  <Rbt.Current_Directory>
/home/itssahil/PROJECTS/Mol_Feturizer/New_Systems/rnas/1uts

>  <Rbt.Executable>
rbdock ($Id: //depot/dev/client3/rdock/2013.1/src/exe/rbdock.cxx#4 $)

>  <Rbt.Library>
libRbt.so (2013.1, Build901 2013/11/27)

>  <Rbt.Parameter_File>
/export/apps/rDock/src/rDock_2013.1_src/data/scripts/dock_solv.prm

>  <Rbt.Receptor>
prm/pocket_docking_4.prm

>  <SCORE>
-30.338

>  <SCORE.INTER>
-28.1556

>  <SCORE.INTER.CONST>
1

>  <SCORE.INTER.POLAR>
-0.979796

>  <SCORE.INTER.ROT>
10

>  <SCORE.INTER.SOLV>
10.6564

>  <SCORE.INTER.VDW>
-29.3232

>  <SCORE.INTER.norm>
-0.93852

>  <SCORE.INTRA>
-2.50909

>  <SCORE.INTRA.DIHEDRAL>
-2.94458

>  <SCORE.INTRA.DIHEDRAL.0>
18.0451

>  <SCORE.INTRA.POLAR>
-0.480908

>  <SCORE.INTRA.POLAR.0>
-0.196815

>  <SCORE.INTRA.REPUL>
0

>  <SCORE.INTRA.REPUL.0>
0

>  <SCORE.INTRA.SOLV>
-0.0885778

>  <SCORE.INTRA.SOLV.lig_0>
-14.7906

>  <SCORE.INTRA.VDW>
0.64258

>  <SCORE.INTRA.VDW.0>
-0.411701

>  <SCORE.INTRA.norm>
-0.0836363

>  <SCORE.RESTR>
0.326649

>  <SCORE.RESTR.CAVITY>
0.326649

>  <SCORE.RESTR.norm>
0.0108883

>  <SCORE.SYSTEM>
0

>  <SCORE.SYSTEM.CONST>
0

>  <SCORE.SYSTEM.DIHEDRAL>
0

>  <SCORE.SYSTEM.SOLV>
0

>  <SCORE.SYSTEM.norm>
0

>  <SCORE.heavy>
30

>  <SCORE.norm>
-1.01127

>  <RMSD>
3.322

$$$$
1uts_lig
 OpenBabel11021811413D
libRbt.so/2013.1/901 2013/11/27
 30 33  0  0  0  0  0  0  0  0999 V2000
    4.7097    5.4296   16.4390 N   0  0  0  0  0  0  0  0  0  0  0  0
    2.8171    3.9974   15.8033 C   0  0  0  0  0  0  0  0  0  0  0  0
   -0.8622    0.8837   16.2157 C   0  0  0  0  0  0  0  0  0  0  0  0
    1.3170    3.8489   16.0730 C   0  0  0  0  0  0  0  0  0  0  0  0
    0.7204    3.0668   15.0280 O   0  0  0  0  0  0  0  0  0  0  0  0
    3.4626    4.8028   16.9324 C   0  0  0  0  0  0  0  0  0  0  0  0
    0.0086    0.2383   15.2071 N   0  0  0  0  0  0  0  0  0  0  0  0
    0.9570   -0.6865   15.8826 C   0  0  0  0  0  0  0  0  0  0  0  0
    2.0221    0.1200   16.6313 C   0  0  0  0  0  0  0  0  0  0  0  0
    3.1426   -0.7718   17.0056 N   0  0  0  0  0  0  0  0  0  0  0  0
    2.8001   -1.4900   18.2668 C   0  0  0  0  0  0  0  0  0  0  0  0
    4.3796    0.0389   17.1883 C   0  0  0  0  0  0  0  0  0  0  0  0
    3.9633   -2.4145   18.6608 C   0  0  0  0  0  0  0  0  0  0  0  0
    5.5444   -0.8853   17.5865 C   0  0  0  0  0  0  0  0  0  0  0  0
    5.2005   -1.6041   18.8449 N   0  0  0  0  0  0  0  0  0  0  0  0
   -2.7467    4.4772   14.5573 C   0  0  0  0  0  0  0  0  0  0  0  0
   -9.1511    3.8293   14.9070 N   0  0  0  0  0  0  0  0  0  0  0  0
   -3.5440    3.4428   15.1028 C   0  0  0  0  0  0  0  0  0  0  0  0
   -2.9270    2.2809   15.6382 C   0  0  0  0  0  0  0  0  0  0  0  0
   -1.5107    2.1546   15.6307 C   0  0  0  0  0  0  0  0  0  0  0  0
   -0.7093    3.1916   15.0653 C   0  0  0  0  0  0  0  0  0  0  0  0
   -1.3324    4.3539   14.5337 C   0  0  0  0  0  0  0  0  0  0  0  0
   -9.3166    3.3126   13.6019 C   0  0  0  0  0  0  0  0  0  0  0  0
   -8.0671    2.9986   13.0206 C   0  0  0  0  0  0  0  0  0  0  0  0
   -5.6917    3.1933   13.9606 C   0  0  0  0  0  0  0  0  0  0  0  0
   -4.9399    3.5738   15.1054 C   0  0  0  0  0  0  0  0  0  0  0  0
   -5.6063    4.0805   16.2549 C   0  0  0  0  0  0  0  0  0  0  0  0
   -7.0221    4.2040   16.2595 C   0  0  0  0  0  0  0  0  0  0  0  0
   -7.7768    3.8074   15.1115 C   0  0  0  0  0  0  0  0  0  0  0  0
   -7.1191    3.3064   13.9731 C   0  0  0  0  0  0  0  0  0  0  0  0
  1  6  1  0  0  0  0
  2  4  1  0  0  0  0
  3  7  1  0  0  0  0
  4  5  1  0  0  0  0
  6  2  1  0  0  0  0
  7  8  1  0  0  0  0
  8  9  1  0  0  0  0
  9 10  1  0  0  0  0
 10 11  1  0  0  0  0
 10 12  1  0  0  0  0
 11 13  1  0  0  0  0
 13 15  1  0  0  0  0
 14 12  1  0  0  0  0
 15 14  1  0  0  0  0
 16 18  2  0  0  0  0
 16 22  1  0  0  0  0
 17 23  1  0  0  0  0
 17 29  1  0  0  0  0
 18 19  1  0  0  0  0
 18 26  1  0  0  0  0
 19 20  2  0  0  0  0
 20  3  1  0  0  0  0
 20 21  1  0  0  0  0
 21  5  1  0  0  0  0
 21 22  2  0  0  0  0
 23 24  2  0  0  0  0
 24 30  1  0  0  0  0
 25 26  2  0  0  0  0
 25 30  1  0  0  0  0
 26 27  1  0  0  0  0
 27 28  2  0  0  0  0
 28 29  1  0  0  0  0
 29 30  2  0  0  0  0
M  END
>  <CHROM.1>
-77.27714530,-178.67955868,161.25959876,-165.49838747,-156.29078016,-72.43647492
-165.68643659,-82.91300322,85.15796721,124.04743533,-101.76520590,-0.98957397
2.16547746,15.87323224,-0.33722785,-0.17282665,-0.23818192

>  <Name>
1uts_lig

>  <RI>
0

>  <Rbt.Current_Directory>
/home/itssahil/PROJECTS/Mol_Feturizer/New_Systems/rnas/1uts

>  <Rbt.Executable>
rbdock ($Id: //depot/dev/client3/rdock/2013.1/src/exe/rbdock.cxx#4 $)

>  <Rbt.Library>
libRbt.so (2013.1, Build901 2013/11/27)

>  <Rbt.Parameter_File>
/export/apps/rDock/src/rDock_2013.1_src/data/scripts/dock_solv.prm

>  <Rbt.Receptor>
prm/pocket_docking_5.prm

>  <SCORE>
-40.5874

>  <SCORE.INTER>
-37.4196

>  <SCORE.INTER.CONST>
1

>  <SCORE.INTER.POLAR>
-2.26294

>  <SCORE.INTER.ROT>
10

>  <SCORE.INTER.SOLV>
11.416

>  <SCORE.INTER.VDW>
-31.4753

>  <SCORE.INTER.norm>
-1.24732

>  <SCORE.INTRA>
-3.16782

>  <SCORE.INTRA.DIHEDRAL>
-1.30457

>  <SCORE.INTRA.DIHEDRAL.0>
18.0451

>  <SCORE.INTRA.POLAR>
-0.426072

>  <SCORE.INTRA.POLAR.0>
-0.196815

>  <SCORE.INTRA.REPUL>
0

>  <SCORE.INTRA.REPUL.0>
0

>  <SCORE.INTRA.SOLV>
-0.328765

>  <SCORE.INTRA.SOLV.lig_0>
-14.7906

>  <SCORE.INTRA.VDW>
-0.902506

>  <SCORE.INTRA.VDW.0>
-0.411701

>  <SCORE.INTRA.norm>
-0.105594

>  <SCORE.RESTR>
0

>  <SCORE.RESTR.CAVITY>
0

>  <SCORE.RESTR.norm>
0

>  <SCORE.SYSTEM>
0

>  <SCORE.SYSTEM.CONST>
0

>  <SCORE.SYSTEM.DIHEDRAL>
0

>  <SCORE.SYSTEM.SOLV>
0

>  <SCORE.SYSTEM.norm>
0

>  <SCORE.heavy>
30

>  <SCORE.norm>
-1.35291

>  <RMSD>
3.356

$$$$
1uts_lig
 OpenBabel11021811413D
libRbt.so/2013.1/901 2013/11/27
 30 33  0  0  0  0  0  0  0  0999 V2000
    4.7688    3.1322   16.2864 N   0  0  0  0  0  0  0  0  0  0  0  0
    2.6703    4.3764   15.9945 C   0  0  0  0  0  0  0  0  0  0  0  0
   -0.8401    1.3956   16.2811 C   0  0  0  0  0  0  0  0  0  0  0  0
    1.1451    4.2450   15.9544 C   0  0  0  0  0  0  0  0  0  0  0  0
    0.7681    3.4080   14.8511 O   0  0  0  0  0  0  0  0  0  0  0  0
    3.2976    2.9956   16.1947 C   0  0  0  0  0  0  0  0  0  0  0  0
   -0.6626    0.1183   15.5537 N   0  0  0  0  0  0  0  0  0  0  0  0
    0.7646   -0.2952   15.6085 C   0  0  0  0  0  0  0  0  0  0  0  0
    1.1140   -0.7638   17.0240 C   0  0  0  0  0  0  0  0  0  0  0  0
    2.5092   -1.2576   17.0491 N   0  0  0  0  0  0  0  0  0  0  0  0
    2.7637   -1.9485   18.3459 C   0  0  0  0  0  0  0  0  0  0  0  0
    3.4431   -0.1087   16.8799 C   0  0  0  0  0  0  0  0  0  0  0  0
    4.2132   -2.4594   18.3772 C   0  0  0  0  0  0  0  0  0  0  0  0
    4.8951   -0.6187   16.9148 C   0  0  0  0  0  0  0  0  0  0  0  0
    5.1478   -1.3106   18.2092 N   0  0  0  0  0  0  0  0  0  0  0  0
   -2.6729    4.3906   13.6572 C   0  0  0  0  0  0  0  0  0  0  0  0
   -9.0755    3.4930   13.7581 N   0  0  0  0  0  0  0  0  0  0  0  0
   -3.4794    3.4295   14.3122 C   0  0  0  0  0  0  0  0  0  0  0  0
   -2.8790    2.4615   15.1607 C   0  0  0  0  0  0  0  0  0  0  0  0
   -1.4707    2.4567   15.3568 C   0  0  0  0  0  0  0  0  0  0  0  0
   -0.6576    3.4166   14.6825 C   0  0  0  0  0  0  0  0  0  0  0  0
   -1.2645    4.3851   13.8368 C   0  0  0  0  0  0  0  0  0  0  0  0
   -9.3887    3.3353   15.1273 C   0  0  0  0  0  0  0  0  0  0  0  0
   -8.2136    3.2216   15.9045 C   0  0  0  0  0  0  0  0  0  0  0  0
   -5.7456    3.2911   15.2204 C   0  0  0  0  0  0  0  0  0  0  0  0
   -4.8671    3.4395   14.1128 C   0  0  0  0  0  0  0  0  0  0  0  0
   -5.3982    3.6050   12.8041 C   0  0  0  0  0  0  0  0  0  0  0  0
   -6.8051    3.6242   12.6045 C   0  0  0  0  0  0  0  0  0  0  0  0
   -7.6863    3.4887   13.7226 C   0  0  0  0  0  0  0  0  0  0  0  0
   -7.1627    3.3243   15.0181 C   0  0  0  0  0  0  0  0  0  0  0  0
  1  6  1  0  0  0  0
  2  4  1  0  0  0  0
  3  7  1  0  0  0  0
  4  5  1  0  0  0  0
  6  2  1  0  0  0  0
  7  8  1  0  0  0  0
  8  9  1  0  0  0  0
  9 10  1  0  0  0  0
 10 11  1  0  0  0  0
 10 12  1  0  0  0  0
 11 13  1  0  0  0  0
 13 15  1  0  0  0  0
 14 12  1  0  0  0  0
 15 14  1  0  0  0  0
 16 18  2  0  0  0  0
 16 22  1  0  0  0  0
 17 23  1  0  0  0  0
 17 29  1  0  0  0  0
 18 19  1  0  0  0  0
 18 26  1  0  0  0  0
 19 20  2  0  0  0  0
 20  3  1  0  0  0  0
 20 21  1  0  0  0  0
 21  5  1  0  0  0  0
 21 22  2  0  0  0  0
 23 24  2  0  0  0  0
 24 30  1  0  0  0  0
 25 26  2  0  0  0  0
 25 30  1  0  0  0  0
 26 27  1  0  0  0  0
 27 28  2  0  0  0  0
 28 29  1  0  0  0  0
 29 30  2  0  0  0  0
M  END
>  <CHROM.1>
-174.44590423,-61.15369049,123.61721525,-172.17545092,-177.79398503,71.80451383
176.27772757,-169.28488200,-135.46102679,81.78461928,-90.18825047,-1.11588637
1.99397566,15.55797665,-0.39156565,-0.11617506,-0.42244810

>  <Name>
1uts_lig

>  <RI>
0

>  <Rbt.Current_Directory>
/home/itssahil/PROJECTS/Mol_Feturizer/New_Systems/rnas/1uts

>  <Rbt.Executable>
rbdock ($Id: //depot/dev/client3/rdock/2013.1/src/exe/rbdock.cxx#4 $)

>  <Rbt.Library>
libRbt.so (2013.1, Build901 2013/11/27)

>  <Rbt.Parameter_File>
/export/apps/rDock/src/rDock_2013.1_src/data/scripts/dock_solv.prm

>  <Rbt.Receptor>
prm/pocket_docking_4.prm

>  <SCORE>
-33.485

>  <SCORE.INTER>
-31.7276

>  <SCORE.INTER.CONST>
1

>  <SCORE.INTER.POLAR>
-1.65052

>  <SCORE.INTER.ROT>
10

>  <SCORE.INTER.SOLV>
11.1764

>  <SCORE.INTER.VDW>
-29.6422

>  <SCORE.INTER.norm>
-1.05759

>  <SCORE.INTRA>
-1.79555

>  <SCORE.INTRA.DIHEDRAL>
-5.54381

>  <SCORE.INTRA.DIHEDRAL.0>
18.0451

>  <SCORE.INTRA.POLAR>
0.196815

>  <SCORE.INTRA.POLAR.0>
-0.196815

>  <SCORE.INTRA.REPUL>
0

>  <SCORE.INTRA.REPUL.0>
0

>  <SCORE.INTRA.SOLV>
-0.222589

>  <SCORE.INTRA.SOLV.lig_0>
-14.7906

>  <SCORE.INTRA.VDW>
0.418482

>  <SCORE.INTRA.VDW.0>
-0.411701

>  <SCORE.INTRA.norm>
-0.0598515

>  <SCORE.RESTR>
0.0381546

>  <SCORE.RESTR.CAVITY>
0.0381546

>  <SCORE.RESTR.norm>
0.00127182

>  <SCORE.SYSTEM>
0

>  <SCORE.SYSTEM.CONST>
0

>  <SCORE.SYSTEM.DIHEDRAL>
0

>  <SCORE.SYSTEM.SOLV>
0

>  <SCORE.SYSTEM.norm>
0

>  <SCORE.heavy>
30

>  <SCORE.norm>
-1.11617

>  <RMSD>
3.381

$$$$
1uts_lig
 OpenBabel11021811413D
libRbt.so/2013.1/901 2013/11/27
 30 33  0  0  0  0  0  0  0  0999 V2000
    1.3584    1.3066   19.3816 N   0  0  0  0  0  0  0  0  0  0  0  0
    1.8963    3.7034   19.3227 C   0  0  0  0  0  0  0  0  0  0  0  0
    0.3711    1.1310   15.9510 C   0  0  0  0  0  0  0  0  0  0  0  0
    1.1275    4.0311   18.0394 C   0  0  0  0  0  0  0  0  0  0  0  0
   -0.0594    3.2267   17.9768 O   0  0  0  0  0  0  0  0  0  0  0  0
    2.4602    2.2841   19.2329 C   0  0  0  0  0  0  0  0  0  0  0  0
   -0.1891   -0.0514   15.2579 N   0  0  0  0  0  0  0  0  0  0  0  0
    0.5960   -1.2617   15.6182 C   0  0  0  0  0  0  0  0  0  0  0  0
   -0.0321   -1.9421   16.8380 C   0  0  0  0  0  0  0  0  0  0  0  0
    1.0167   -2.6615   17.5953 N   0  0  0  0  0  0  0  0  0  0  0  0
    1.4865   -3.8301   16.7969 C   0  0  0  0  0  0  0  0  0  0  0  0
    0.4605   -3.1140   18.9017 C   0  0  0  0  0  0  0  0  0  0  0  0
    2.5734   -4.5820   17.5820 C   0  0  0  0  0  0  0  0  0  0  0  0
    1.5470   -3.8704   19.6872 C   0  0  0  0  0  0  0  0  0  0  0  0
    2.0174   -5.0359   18.8882 N   0  0  0  0  0  0  0  0  0  0  0  0
   -2.1183    4.6499   15.1542 C   0  0  0  0  0  0  0  0  0  0  0  0
   -4.1197    4.3253    9.0121 N   0  0  0  0  0  0  0  0  0  0  0  0
   -1.9220    3.6744   14.1476 C   0  0  0  0  0  0  0  0  0  0  0  0
   -1.1138    2.5367   14.4123 C   0  0  0  0  0  0  0  0  0  0  0  0
   -0.5037    2.3730   15.6862 C   0  0  0  0  0  0  0  0  0  0  0  0
   -0.6896    3.3660   16.6944 C   0  0  0  0  0  0  0  0  0  0  0  0
   -1.5022    4.5012   16.4248 C   0  0  0  0  0  0  0  0  0  0  0  0
   -2.8984    4.4783    8.3173 C   0  0  0  0  0  0  0  0  0  0  0  0
   -1.8009    4.4206    9.2060 C   0  0  0  0  0  0  0  0  0  0  0  0
   -1.7224    4.0656   11.7421 C   0  0  0  0  0  0  0  0  0  0  0  0
   -2.5256    3.8434   12.8936 C   0  0  0  0  0  0  0  0  0  0  0  0
   -3.9411    3.7860   12.7701 C   0  0  0  0  0  0  0  0  0  0  0  0
   -4.5512    3.9483   11.4969 C   0  0  0  0  0  0  0  0  0  0  0  0
   -3.7397    4.1578   10.3383 C   0  0  0  0  0  0  0  0  0  0  0  0
   -2.3391    4.2154   10.4585 C   0  0  0  0  0  0  0  0  0  0  0  0
  1  6  1  0  0  0  0
  2  4  1  0  0  0  0
  3  7  1  0  0  0  0
  4  5  1  0  0  0  0
  6  2  1  0  0  0  0
  7  8  1  0  0  0  0
  8  9  1  0  0  0  0
  9 10  1  0  0  0  0
 10 11  1  0  0  0  0
 10 12  1  0  0  0  0
 11 13  1  0  0  0  0
 13 15  1  0  0  0  0
 14 12  1  0  0  0  0
 15 14  1  0  0  0  0
 16 18  2  0  0  0  0
 16 22  1  0  0  0  0
 17 23  1  0  0  0  0
 17 29  1  0  0  0  0
 18 19  1  0  0  0  0
 18 26  1  0  0  0  0
 19 20  2  0  0  0  0
 20  3  1  0  0  0  0
 20 21  1  0  0  0  0
 21  5  1  0  0  0  0
 21 22  2  0  0  0  0
 23 24  2  0  0  0  0
 24 30  1  0  0  0  0
 25 26  2  0  0  0  0
 25 30  1  0  0  0  0
 26 27  1  0  0  0  0
 27 28  2  0  0  0  0
 28 29  1  0  0  0  0
 29 30  2  0  0  0  0
M  END
>  <CHROM.1>
-69.69818802,68.30233814,-175.09837254,-171.28434864,-73.04081439,91.49823510
-151.66161353,-69.11159153,113.47121205,-36.08499482,99.76123513,-0.53068948
1.44099273,15.35359812,-0.35087126,-1.11667660,0.33749132

>  <Name>
1uts_lig

>  <RI>
0

>  <Rbt.Current_Directory>
/home/itssahil/PROJECTS/Mol_Feturizer/New_Systems/rnas/1uts

>  <Rbt.Executable>
rbdock ($Id: //depot/dev/client3/rdock/2013.1/src/exe/rbdock.cxx#4 $)

>  <Rbt.Library>
libRbt.so (2013.1, Build901 2013/11/27)

>  <Rbt.Parameter_File>
/export/apps/rDock/src/rDock_2013.1_src/data/scripts/dock_solv.prm

>  <Rbt.Receptor>
prm/pocket_docking_5.prm

>  <SCORE>
-29.3517

>  <SCORE.INTER>
-26.3189

>  <SCORE.INTER.CONST>
1

>  <SCORE.INTER.POLAR>
-1.6463

>  <SCORE.INTER.ROT>
10

>  <SCORE.INTER.SOLV>
10.0981

>  <SCORE.INTER.VDW>
-25.691

>  <SCORE.INTER.norm>
-0.877298

>  <SCORE.INTRA>
-3.03273

>  <SCORE.INTRA.DIHEDRAL>
-2.38302

>  <SCORE.INTRA.DIHEDRAL.0>
18.0451

>  <SCORE.INTRA.POLAR>
-0.485961

>  <SCORE.INTRA.POLAR.0>
-0.196815

>  <SCORE.INTRA.REPUL>
0

>  <SCORE.INTRA.REPUL.0>
0

>  <SCORE.INTRA.SOLV>
0.128533

>  <SCORE.INTRA.SOLV.lig_0>
-14.7906

>  <SCORE.INTRA.VDW>
-0.253217

>  <SCORE.INTRA.VDW.0>
-0.411701

>  <SCORE.INTRA.norm>
-0.101091

>  <SCORE.RESTR>
0

>  <SCORE.RESTR.CAVITY>
0

>  <SCORE.RESTR.norm>
0

>  <SCORE.SYSTEM>
0

>  <SCORE.SYSTEM.CONST>
0

>  <SCORE.SYSTEM.DIHEDRAL>
0

>  <SCORE.SYSTEM.SOLV>
0

>  <SCORE.SYSTEM.norm>
0

>  <SCORE.heavy>
30

>  <SCORE.norm>
-0.978389

>  <RMSD>
3.489

$$$$
1uts_lig
 OpenBabel11021811413D
libRbt.so/2013.1/901 2013/11/27
 30 33  0  0  0  0  0  0  0  0999 V2000
    4.3299    3.8190   15.9391 N   0  0  0  0  0  0  0  0  0  0  0  0
    2.4501    3.3736   17.4575 C   0  0  0  0  0  0  0  0  0  0  0  0
   -1.9459    1.1727   16.0811 C   0  0  0  0  0  0  0  0  0  0  0  0
    1.4629    3.7552   16.3506 C   0  0  0  0  0  0  0  0  0  0  0  0
    0.1983    3.1250   16.6025 O   0  0  0  0  0  0  0  0  0  0  0  0
    3.7574    4.1444   17.2650 C   0  0  0  0  0  0  0  0  0  0  0  0
   -0.9353    0.1527   15.7201 N   0  0  0  0  0  0  0  0  0  0  0  0
   -1.1038   -1.0466   16.5827 C   0  0  0  0  0  0  0  0  0  0  0  0
    0.0740   -2.0033   16.3753 C   0  0  0  0  0  0  0  0  0  0  0  0
    1.2629   -1.4824   17.0867 N   0  0  0  0  0  0  0  0  0  0  0  0
    2.0829   -0.6678   16.1444 C   0  0  0  0  0  0  0  0  0  0  0  0
    2.0607   -2.6239   17.6173 C   0  0  0  0  0  0  0  0  0  0  0  0
    3.3208   -0.1282   16.8790 C   0  0  0  0  0  0  0  0  0  0  0  0
    3.3026   -2.0849   18.3498 C   0  0  0  0  0  0  0  0  0  0  0  0
    4.1198   -1.2694   17.4088 N   0  0  0  0  0  0  0  0  0  0  0  0
   -1.4358    4.7678   13.6255 C   0  0  0  0  0  0  0  0  0  0  0  0
   -5.6969    4.8395    8.8348 N   0  0  0  0  0  0  0  0  0  0  0  0
   -2.4679    3.8452   13.3307 C   0  0  0  0  0  0  0  0  0  0  0  0
   -2.6274    2.6820   14.1301 C   0  0  0  0  0  0  0  0  0  0  0  0
   -1.7555    2.4428   15.2276 C   0  0  0  0  0  0  0  0  0  0  0  0
   -0.7052    3.3662   15.5132 C   0  0  0  0  0  0  0  0  0  0  0  0
   -0.5523    4.5303   14.7114 C   0  0  0  0  0  0  0  0  0  0  0  0
   -4.6669    5.2830    7.9744 C   0  0  0  0  0  0  0  0  0  0  0  0
   -3.4187    5.2807    8.6374 C   0  0  0  0  0  0  0  0  0  0  0  0
   -2.7978    4.5940   11.0263 C   0  0  0  0  0  0  0  0  0  0  0  0
   -3.3228    4.0870   12.2461 C   0  0  0  0  0  0  0  0  0  0  0  0
   -4.7146    3.8192   12.3618 C   0  0  0  0  0  0  0  0  0  0  0  0
   -5.5786    4.0560   11.2586 C   0  0  0  0  0  0  0  0  0  0  0  0
   -5.0453    4.5530   10.0283 C   0  0  0  0  0  0  0  0  0  0  0  0
   -3.6687    4.8191    9.9122 C   0  0  0  0  0  0  0  0  0  0  0  0
  1  6  1  0  0  0  0
  2  4  1  0  0  0  0
  3  7  1  0  0  0  0
  4  5  1  0  0  0  0
  6  2  1  0  0  0  0
  7  8  1  0  0  0  0
  8  9  1  0  0  0  0
  9 10  1  0  0  0  0
 10 11  1  0  0  0  0
 10 12  1  0  0  0  0
 11 13  1  0  0  0  0
 13 15  1  0  0  0  0
 14 12  1  0  0  0  0
 15 14  1  0  0  0  0
 16 18  2  0  0  0  0
 16 22  1  0  0  0  0
 17 23  1  0  0  0  0
 17 29  1  0  0  0  0
 18 19  1  0  0  0  0
 18 26  1  0  0  0  0
 19 20  2  0  0  0  0
 20  3  1  0  0  0  0
 20 21  1  0  0  0  0
 21  5  1  0  0  0  0
 21 22  2  0  0  0  0
 23 24  2  0  0  0  0
 24 30  1  0  0  0  0
 25 26  2  0  0  0  0
 25 30  1  0  0  0  0
 26 27  1  0  0  0  0
 27 28  2  0  0  0  0
 28 29  1  0  0  0  0
 29 30  2  0  0  0  0
M  END
>  <CHROM.1>
-167.34894352,-174.78883039,178.10956515,-174.60406483,-59.25552936,-170.68847137
76.40759154,-93.69315851,40.84165390,102.40997429,153.14024498,-0.63218485
2.27348507,14.48946473,-0.71739120,-0.58928565,-0.39499446

>  <Name>
1uts_lig

>  <RI>
0

>  <Rbt.Current_Directory>
/home/itssahil/PROJECTS/Mol_Feturizer/New_Systems/rnas/1uts

>  <Rbt.Executable>
rbdock ($Id: //depot/dev/client3/rdock/2013.1/src/exe/rbdock.cxx#4 $)

>  <Rbt.Library>
libRbt.so (2013.1, Build901 2013/11/27)

>  <Rbt.Parameter_File>
/export/apps/rDock/src/rDock_2013.1_src/data/scripts/dock_solv.prm

>  <Rbt.Receptor>
prm/pocket_docking_5.prm

>  <SCORE>
-27.5439

>  <SCORE.INTER>
-25.3279

>  <SCORE.INTER.CONST>
1

>  <SCORE.INTER.POLAR>
-1.56197

>  <SCORE.INTER.ROT>
10

>  <SCORE.INTER.SOLV>
10.454

>  <SCORE.INTER.VDW>
-25.43

>  <SCORE.INTER.norm>
-0.844262

>  <SCORE.INTRA>
-2.21978

>  <SCORE.INTRA.DIHEDRAL>
-10.2874

>  <SCORE.INTRA.DIHEDRAL.0>
18.0451

>  <SCORE.INTRA.POLAR>
0.196815

>  <SCORE.INTRA.POLAR.0>
-0.196815

>  <SCORE.INTRA.REPUL>
0

>  <SCORE.INTRA.REPUL.0>
0

>  <SCORE.INTRA.SOLV>
-0.0302987

>  <SCORE.INTRA.SOLV.lig_0>
-14.7906

>  <SCORE.INTRA.VDW>
2.26989

>  <SCORE.INTRA.VDW.0>
-0.411701

>  <SCORE.INTRA.norm>
-0.0739925

>  <SCORE.RESTR>
0.00378834

>  <SCORE.RESTR.CAVITY>
0.00378834

>  <SCORE.RESTR.norm>
0.000126278

>  <SCORE.SYSTEM>
0

>  <SCORE.SYSTEM.CONST>
0

>  <SCORE.SYSTEM.DIHEDRAL>
0

>  <SCORE.SYSTEM.SOLV>
0

>  <SCORE.SYSTEM.norm>
0

>  <SCORE.heavy>
30

>  <SCORE.norm>
-0.918129

>  <RMSD>
3.738

$$$$
1uts_lig
 OpenBabel11021811413D
libRbt.so/2013.1/901 2013/11/27
 30 33  0  0  0  0  0  0  0  0999 V2000
    5.2579   -1.8574   17.0417 N   0  0  0  0  0  0  0  0  0  0  0  0
    5.0373    0.5614   17.4131 C   0  0  0  0  0  0  0  0  0  0  0  0
    2.8300    4.5591   15.8628 C   0  0  0  0  0  0  0  0  0  0  0  0
    3.7325    0.8063   16.6498 C   0  0  0  0  0  0  0  0  0  0  0  0
    3.0624    1.9471   17.2061 O   0  0  0  0  0  0  0  0  0  0  0  0
    5.8406   -0.5367   16.7137 C   0  0  0  0  0  0  0  0  0  0  0  0
    3.4321    4.5961   17.2149 N   0  0  0  0  0  0  0  0  0  0  0  0
    2.4857    5.2348   18.1674 C   0  0  0  0  0  0  0  0  0  0  0  0
    3.1996    5.5242   19.4910 C   0  0  0  0  0  0  0  0  0  0  0  0
    3.4931    4.2484   20.1817 N   0  0  0  0  0  0  0  0  0  0  0  0
    2.2427    3.7271   20.8052 C   0  0  0  0  0  0  0  0  0  0  0  0
    4.5361    4.4777   21.2211 C   0  0  0  0  0  0  0  0  0  0  0  0
    2.5445    2.4037   21.5268 C   0  0  0  0  0  0  0  0  0  0  0  0
    4.8365    3.1539   21.9469 C   0  0  0  0  0  0  0  0  0  0  0  0
    3.5868    2.6326   22.5673 N   0  0  0  0  0  0  0  0  0  0  0  0
   -0.3571    1.5564   15.6616 C   0  0  0  0  0  0  0  0  0  0  0  0
   -5.3900    3.8797   12.4257 N   0  0  0  0  0  0  0  0  0  0  0  0
   -0.5155    2.8065   15.0170 C   0  0  0  0  0  0  0  0  0  0  0  0
    0.5210    3.7752   15.0865 C   0  0  0  0  0  0  0  0  0  0  0  0
    1.7185    3.4921   15.7990 C   0  0  0  0  0  0  0  0  0  0  0  0
    1.8694    2.2372   16.4620 C   0  0  0  0  0  0  0  0  0  0  0  0
    0.8298    1.2702   16.3863 C   0  0  0  0  0  0  0  0  0  0  0  0
   -6.2402    3.5149   13.4943 C   0  0  0  0  0  0  0  0  0  0  0  0
   -5.4909    3.0656   14.6053 C   0  0  0  0  0  0  0  0  0  0  0  0
   -2.9589    2.8649   14.9412 C   0  0  0  0  0  0  0  0  0  0  0  0
   -1.6997    3.0789   14.3176 C   0  0  0  0  0  0  0  0  0  0  0  0
   -1.6432    3.5762   12.9865 C   0  0  0  0  0  0  0  0  0  0  0  0
   -2.8441    3.8608   12.2820 C   0  0  0  0  0  0  0  0  0  0  0  0
   -4.1092    3.6575   12.9170 C   0  0  0  0  0  0  0  0  0  0  0  0
   -4.1671    3.1651   14.2336 C   0  0  0  0  0  0  0  0  0  0  0  0
  1  6  1  0  0  0  0
  2  4  1  0  0  0  0
  3  7  1  0  0  0  0
  4  5  1  0  0  0  0
  6  2  1  0  0  0  0
  7  8  1  0  0  0  0
  8  9  1  0  0  0  0
  9 10  1  0  0  0  0
 10 11  1  0  0  0  0
 10 12  1  0  0  0  0
 11 13  1  0  0  0  0
 13 15  1  0  0  0  0
 14 12  1  0  0  0  0
 15 14  1  0  0  0  0
 16 18  2  0  0  0  0
 16 22  1  0  0  0  0
 17 23  1  0  0  0  0
 17 29  1  0  0  0  0
 18 19  1  0  0  0  0
 18 26  1  0  0  0  0
 19 20  2  0  0  0  0
 20  3  1  0  0  0  0
 20 21  1  0  0  0  0
 21  5  1  0  0  0  0
 21 22  2  0  0  0  0
 23 24  2  0  0  0  0
 24 30  1  0  0  0  0
 25 26  2  0  0  0  0
 25 30  1  0  0  0  0
 26 27  1  0  0  0  0
 27 28  2  0  0  0  0
 28 29  1  0  0  0  0
 29 30  2  0  0  0  0
M  END
>  <CHROM.1>
-42.78556604,-172.76625510,-73.38948992,177.06082391,-77.43379798,-168.95506459
-69.54557014,-76.65964516,50.36993602,139.83932891,-119.01219490,1.03622086
2.87233225,16.82200812,-0.43853524,0.51218258,-2.23380405

>  <Name>
1uts_lig

>  <RI>
0

>  <Rbt.Current_Directory>
/home/itssahil/PROJECTS/Mol_Feturizer/New_Systems/rnas/1uts

>  <Rbt.Executable>
rbdock ($Id: //depot/dev/client3/rdock/2013.1/src/exe/rbdock.cxx#4 $)

>  <Rbt.Library>
libRbt.so (2013.1, Build901 2013/11/27)

>  <Rbt.Parameter_File>
/export/apps/rDock/src/rDock_2013.1_src/data/scripts/dock_solv.prm

>  <Rbt.Receptor>
prm/pocket_docking_3.prm

>  <SCORE>
-26.9771

>  <SCORE.INTER>
-20.7728

>  <SCORE.INTER.CONST>
1

>  <SCORE.INTER.POLAR>
-0.781289

>  <SCORE.INTER.ROT>
10

>  <SCORE.INTER.SOLV>
9.56248

>  <SCORE.INTER.VDW>
-24.6984

>  <SCORE.INTER.norm>
-0.692427

>  <SCORE.INTRA>
-6.20424

>  <SCORE.INTRA.DIHEDRAL>
-7.08565

>  <SCORE.INTRA.DIHEDRAL.0>
18.0451

>  <SCORE.INTRA.POLAR>
-0.585336

>  <SCORE.INTRA.POLAR.0>
-0.196815

>  <SCORE.INTRA.REPUL>
0

>  <SCORE.INTRA.REPUL.0>
0

>  <SCORE.INTRA.SOLV>
0.149874

>  <SCORE.INTRA.SOLV.lig_0>
-14.7906

>  <SCORE.INTRA.VDW>
-0.746213

>  <SCORE.INTRA.VDW.0>
-0.411701

>  <SCORE.INTRA.norm>
-0.206808

>  <SCORE.RESTR>
0

>  <SCORE.RESTR.CAVITY>
0

>  <SCORE.RESTR.norm>
0

>  <SCORE.SYSTEM>
0

>  <SCORE.SYSTEM.CONST>
0

>  <SCORE.SYSTEM.DIHEDRAL>
0

>  <SCORE.SYSTEM.SOLV>
0

>  <SCORE.SYSTEM.norm>
0

>  <SCORE.heavy>
30

>  <SCORE.norm>
-0.899235

>  <RMSD>
3.905

$$$$
1uts_lig
 OpenBabel11021811413D
libRbt.so/2013.1/901 2013/11/27
 30 33  0  0  0  0  0  0  0  0999 V2000
    5.0025   -0.2220   17.7529 N   0  0  0  0  0  0  0  0  0  0  0  0
    4.2553    1.9812   16.9625 C   0  0  0  0  0  0  0  0  0  0  0  0
    0.5821    5.3429   17.3186 C   0  0  0  0  0  0  0  0  0  0  0  0
    3.0966    2.7286   16.2962 C   0  0  0  0  0  0  0  0  0  0  0  0
    1.9687    2.7467   17.1835 O   0  0  0  0  0  0  0  0  0  0  0  0
    3.9535    0.4816   16.9809 C   0  0  0  0  0  0  0  0  0  0  0  0
   -0.0785    5.3755   18.6432 N   0  0  0  0  0  0  0  0  0  0  0  0
    0.7936    4.7208   19.6540 C   0  0  0  0  0  0  0  0  0  0  0  0
    2.0629    5.5527   19.8596 C   0  0  0  0  0  0  0  0  0  0  0  0
    2.9862    4.8281   20.7614 N   0  0  0  0  0  0  0  0  0  0  0  0
    4.1100    5.7306   21.1441 C   0  0  0  0  0  0  0  0  0  0  0  0
    3.5057    3.6163   20.0669 C   0  0  0  0  0  0  0  0  0  0  0  0
    5.0733    4.9800   22.0779 C   0  0  0  0  0  0  0  0  0  0  0  0
    4.4734    2.8659   20.9997 C   0  0  0  0  0  0  0  0  0  0  0  0
    5.5942    3.7686   21.3834 N   0  0  0  0  0  0  0  0  0  0  0  0
   -0.9681    2.0073   14.9341 C   0  0  0  0  0  0  0  0  0  0  0  0
   -6.6096    3.7791   12.3466 N   0  0  0  0  0  0  0  0  0  0  0  0
   -1.6741    3.2329   14.9868 C   0  0  0  0  0  0  0  0  0  0  0  0
   -1.1665    4.3096   15.7617 C   0  0  0  0  0  0  0  0  0  0  0  0
    0.0504    4.1613   16.4824 C   0  0  0  0  0  0  0  0  0  0  0  0
    0.7522    2.9192   16.4409 C   0  0  0  0  0  0  0  0  0  0  0  0
    0.2408    1.8460   15.6610 C   0  0  0  0  0  0  0  0  0  0  0  0
   -7.4341    3.4591   13.4492 C   0  0  0  0  0  0  0  0  0  0  0  0
   -6.6569    3.1550   14.5898 C   0  0  0  0  0  0  0  0  0  0  0  0
   -4.1167    3.1373   14.9238 C   0  0  0  0  0  0  0  0  0  0  0  0
   -2.8739    3.3712   14.2748 C   0  0  0  0  0  0  0  0  0  0  0  0
   -2.8502    3.7520   12.9049 C   0  0  0  0  0  0  0  0  0  0  0  0
   -4.0675    3.9008   12.1868 C   0  0  0  0  0  0  0  0  0  0  0  0
   -5.3167    3.6784   12.8462 C   0  0  0  0  0  0  0  0  0  0  0  0
   -5.3422    3.3009   14.2013 C   0  0  0  0  0  0  0  0  0  0  0  0
  1  6  1  0  0  0  0
  2  4  1  0  0  0  0
  3  7  1  0  0  0  0
  4  5  1  0  0  0  0
  6  2  1  0  0  0  0
  7  8  1  0  0  0  0
  8  9  1  0  0  0  0
  9 10  1  0  0  0  0
 10 11  1  0  0  0  0
 10 12  1  0  0  0  0
 11 13  1  0  0  0  0
 13 15  1  0  0  0  0
 14 12  1  0  0  0  0
 15 14  1  0  0  0  0
 16 18  2  0  0  0  0
 16 22  1  0  0  0  0
 17 23  1  0  0  0  0
 17 29  1  0  0  0  0
 18 19  1  0  0  0  0
 18 26  1  0  0  0  0
 19 20  2  0  0  0  0
 20  3  1  0  0  0  0
 20 21  1  0  0  0  0
 21  5  1  0  0  0  0
 21 22  2  0  0  0  0
 23 24  2  0  0  0  0
 24 30  1  0  0  0  0
 25 26  2  0  0  0  0
 25 30  1  0  0  0  0
 26 27  1  0  0  0  0
 27 28  2  0  0  0  0
 28 29  1  0  0  0  0
 29 30  2  0  0  0  0
M  END
>  <CHROM.1>
60.91400136,72.92207578,97.56645916,-156.23355829,-173.94132788,66.62017818
-174.30812417,-170.49084646,94.87008195,82.88134899,-107.21743586,0.17852569
3.47365179,16.91405463,-0.44540529,0.43932726,-2.30908112

>  <Name>
1uts_lig

>  <RI>
0

>  <Rbt.Current_Directory>
/home/itssahil/PROJECTS/Mol_Feturizer/New_Systems/rnas/1uts

>  <Rbt.Executable>
rbdock ($Id: //depot/dev/client3/rdock/2013.1/src/exe/rbdock.cxx#4 $)

>  <Rbt.Library>
libRbt.so (2013.1, Build901 2013/11/27)

>  <Rbt.Parameter_File>
/export/apps/rDock/src/rDock_2013.1_src/data/scripts/dock_solv.prm

>  <Rbt.Receptor>
prm/pocket_docking_2.prm

>  <SCORE>
-13.6539

>  <SCORE.INTER>
-12.8115

>  <SCORE.INTER.CONST>
1

>  <SCORE.INTER.POLAR>
0

>  <SCORE.INTER.ROT>
10

>  <SCORE.INTER.SOLV>
8.97686

>  <SCORE.INTER.VDW>
-21.7999

>  <SCORE.INTER.norm>
-0.42705

>  <SCORE.INTRA>
-1.0609

>  <SCORE.INTRA.DIHEDRAL>
-2.05403

>  <SCORE.INTRA.DIHEDRAL.0>
18.0451

>  <SCORE.INTRA.POLAR>
0.196815

>  <SCORE.INTRA.POLAR.0>
-0.196815

>  <SCORE.INTRA.REPUL>
0

>  <SCORE.INTRA.REPUL.0>
0

>  <SCORE.INTRA.SOLV>
-0.311529

>  <SCORE.INTRA.SOLV.lig_0>
-14.7906

>  <SCORE.INTRA.VDW>
-0.547286

>  <SCORE.INTRA.VDW.0>
-0.411701

>  <SCORE.INTRA.norm>
-0.0353632

>  <SCORE.RESTR>
0.218456

>  <SCORE.RESTR.CAVITY>
0.218456

>  <SCORE.RESTR.norm>
0.00728186

>  <SCORE.SYSTEM>
0

>  <SCORE.SYSTEM.CONST>
0

>  <SCORE.SYSTEM.DIHEDRAL>
0

>  <SCORE.SYSTEM.SOLV>
0

>  <SCORE.SYSTEM.norm>
0

>  <SCORE.heavy>
30

>  <SCORE.norm>
-0.455131

>  <RMSD>
4.051

$$$$
1uts_lig
 OpenBabel11021811413D
libRbt.so/2013.1/901 2013/11/27
 30 33  0  0  0  0  0  0  0  0999 V2000
    5.3982   -1.1755   16.6891 N   0  0  0  0  0  0  0  0  0  0  0  0
    4.3558    0.8745   17.5538 C   0  0  0  0  0  0  0  0  0  0  0  0
    1.9086    4.4292   16.3551 C   0  0  0  0  0  0  0  0  0  0  0  0
    3.1390    1.1160   16.6558 C   0  0  0  0  0  0  0  0  0  0  0  0
    2.0800    1.6928   17.4339 O   0  0  0  0  0  0  0  0  0  0  0  0
    5.5020    0.3009   16.7188 C   0  0  0  0  0  0  0  0  0  0  0  0
    1.4792    5.2627   17.5010 N   0  0  0  0  0  0  0  0  0  0  0  0
    2.6643    5.6472   18.3125 C   0  0  0  0  0  0  0  0  0  0  0  0
    2.3137    5.5865   19.8021 C   0  0  0  0  0  0  0  0  0  0  0  0
    3.4349    4.9716   20.5475 N   0  0  0  0  0  0  0  0  0  0  0  0
    3.5037    3.5178   20.2225 C   0  0  0  0  0  0  0  0  0  0  0  0
    3.2232    5.1683   22.0095 C   0  0  0  0  0  0  0  0  0  0  0  0
    4.6649    2.8749   20.9980 C   0  0  0  0  0  0  0  0  0  0  0  0
    4.3836    4.5216   22.7872 C   0  0  0  0  0  0  0  0  0  0  0  0
    4.4531    3.0702   22.4603 N   0  0  0  0  0  0  0  0  0  0  0  0
   -1.1258    1.3927   15.4680 C   0  0  0  0  0  0  0  0  0  0  0  0
   -5.8338    3.9712   11.9371 N   0  0  0  0  0  0  0  0  0  0  0  0
   -1.2544    2.7014   14.9445 C   0  0  0  0  0  0  0  0  0  0  0  0
   -0.2678    3.6807   15.2362 C   0  0  0  0  0  0  0  0  0  0  0  0
    0.8504    3.3499   16.0499 C   0  0  0  0  0  0  0  0  0  0  0  0
    0.9697    2.0342   16.5902 C   0  0  0  0  0  0  0  0  0  0  0  0
   -0.0194    1.0572   16.2922 C   0  0  0  0  0  0  0  0  0  0  0  0
   -6.7881    3.6634   12.9332 C   0  0  0  0  0  0  0  0  0  0  0  0
   -6.1584    3.1946   14.1085 C   0  0  0  0  0  0  0  0  0  0  0  0
   -3.6768    2.8767   14.6606 C   0  0  0  0  0  0  0  0  0  0  0  0
   -2.3604    3.0206   14.1442 C   0  0  0  0  0  0  0  0  0  0  0  0
   -2.1672    3.4953   12.8176 C   0  0  0  0  0  0  0  0  0  0  0  0
   -3.2889    3.8273   12.0106 C   0  0  0  0  0  0  0  0  0  0  0  0
   -4.6116    3.6946   12.5378 C   0  0  0  0  0  0  0  0  0  0  0  0
   -4.8046    3.2246   13.8497 C   0  0  0  0  0  0  0  0  0  0  0  0
  1  6  1  0  0  0  0
  2  4  1  0  0  0  0
  3  7  1  0  0  0  0
  4  5  1  0  0  0  0
  6  2  1  0  0  0  0
  7  8  1  0  0  0  0
  8  9  1  0  0  0  0
  9 10  1  0  0  0  0
 10 11  1  0  0  0  0
 10 12  1  0  0  0  0
 11 13  1  0  0  0  0
 13 15  1  0  0  0  0
 14 12  1  0  0  0  0
 15 14  1  0  0  0  0
 16 18  2  0  0  0  0
 16 22  1  0  0  0  0
 17 23  1  0  0  0  0
 17 29  1  0  0  0  0
 18 19  1  0  0  0  0
 18 26  1  0  0  0  0
 19 20  2  0  0  0  0
 20  3  1  0  0  0  0
 20 21  1  0  0  0  0
 21  5  1  0  0  0  0
 21 22  2  0  0  0  0
 23 24  2  0  0  0  0
 24 30  1  0  0  0  0
 25 26  2  0  0  0  0
 25 30  1  0  0  0  0
 26 27  1  0  0  0  0
 27 28  2  0  0  0  0
 28 29  1  0  0  0  0
 29 30  2  0  0  0  0
M  END
>  <CHROM.1>
179.66100221,-178.21843036,144.50706483,175.05905288,-88.62146023,-140.42255986
137.92038338,-70.72939708,58.76465707,83.90651430,-93.61259792,0.59125002
3.08523542,16.79419574,-0.45387433,0.52508610,-2.33343281

>  <Name>
1uts_lig

>  <RI>
0

>  <Rbt.Current_Directory>
/home/itssahil/PROJECTS/Mol_Feturizer/New_Systems/rnas/1uts

>  <Rbt.Executable>
rbdock ($Id: //depot/dev/client3/rdock/2013.1/src/exe/rbdock.cxx#4 $)

>  <Rbt.Library>
libRbt.so (2013.1, Build901 2013/11/27)

>  <Rbt.Parameter_File>
/export/apps/rDock/src/rDock_2013.1_src/data/scripts/dock_solv.prm

>  <Rbt.Receptor>
prm/pocket_docking_3.prm

>  <SCORE>
-17.5888

>  <SCORE.INTER>
-18.7358

>  <SCORE.INTER.CONST>
1

>  <SCORE.INTER.POLAR>
-1.28086

>  <SCORE.INTER.ROT>
10

>  <SCORE.INTER.SOLV>
10.3919

>  <SCORE.INTER.VDW>
-21.9516

>  <SCORE.INTER.norm>
-0.624526

>  <SCORE.INTRA>
1.14489

>  <SCORE.INTRA.DIHEDRAL>
3.36187

>  <SCORE.INTRA.DIHEDRAL.0>
18.0451

>  <SCORE.INTRA.POLAR>
0.196815

>  <SCORE.INTRA.POLAR.0>
-0.196815

>  <SCORE.INTRA.REPUL>
0

>  <SCORE.INTRA.REPUL.0>
0

>  <SCORE.INTRA.SOLV>
-0.376419

>  <SCORE.INTRA.SOLV.lig_0>
-14.7906

>  <SCORE.INTRA.VDW>
-1.017

>  <SCORE.INTRA.VDW.0>
-0.411701

>  <SCORE.INTRA.norm>
0.0381631

>  <SCORE.RESTR>
0.00212466

>  <SCORE.RESTR.CAVITY>
0.00212466

>  <SCORE.RESTR.norm>
7.08221e-05

>  <SCORE.SYSTEM>
0

>  <SCORE.SYSTEM.CONST>
0

>  <SCORE.SYSTEM.DIHEDRAL>
0

>  <SCORE.SYSTEM.SOLV>
0

>  <SCORE.SYSTEM.norm>
0

>  <SCORE.heavy>
30

>  <SCORE.norm>
-0.586292

>  <RMSD>
4.071

$$$$
1uts_lig
 OpenBabel11021811413D
libRbt.so/2013.1/901 2013/11/27
 30 33  0  0  0  0  0  0  0  0999 V2000
    0.6372    6.9607   18.4601 N   0  0  0  0  0  0  0  0  0  0  0  0
   -1.3834    5.5626   18.4590 C   0  0  0  0  0  0  0  0  0  0  0  0
    0.7778    2.7560   15.7012 C   0  0  0  0  0  0  0  0  0  0  0  0
   -1.9036    4.1410   18.6903 C   0  0  0  0  0  0  0  0  0  0  0  0
   -1.1907    3.2291   17.8419 O   0  0  0  0  0  0  0  0  0  0  0  0
    0.1002    5.6305   18.8258 C   0  0  0  0  0  0  0  0  0  0  0  0
    1.6062    3.9467   15.9981 N   0  0  0  0  0  0  0  0  0  0  0  0
    3.0454    3.5736   15.9763 C   0  0  0  0  0  0  0  0  0  0  0  0
    3.3448    2.5979   17.1181 C   0  0  0  0  0  0  0  0  0  0  0  0
    3.1695    3.2890   18.4153 N   0  0  0  0  0  0  0  0  0  0  0  0
    4.4655    3.2875   19.1531 C   0  0  0  0  0  0  0  0  0  0  0  0
    2.1185    2.5913   19.2088 C   0  0  0  0  0  0  0  0  0  0  0  0
    4.2863    4.0011   20.5028 C   0  0  0  0  0  0  0  0  0  0  0  0
    1.9408    3.3029   20.5622 C   0  0  0  0  0  0  0  0  0  0  0  0
    3.2361    3.3031   21.2974 N   0  0  0  0  0  0  0  0  0  0  0  0
   -3.3501    3.9488   14.8335 C   0  0  0  0  0  0  0  0  0  0  0  0
   -3.8639    4.5004    8.3909 N   0  0  0  0  0  0  0  0  0  0  0  0
   -2.4301    3.7488   13.7766 C   0  0  0  0  0  0  0  0  0  0  0  0
   -1.0939    3.3628   14.0648 C   0  0  0  0  0  0  0  0  0  0  0  0
   -0.6781    3.1736   15.4114 C   0  0  0  0  0  0  0  0  0  0  0  0
   -1.6030    3.3917   16.4764 C   0  0  0  0  0  0  0  0  0  0  0  0
   -2.9401    3.7751   16.1817 C   0  0  0  0  0  0  0  0  0  0  0  0
   -2.5636    4.7522    7.8972 C   0  0  0  0  0  0  0  0  0  0  0  0
   -1.6114    4.7173    8.9411 C   0  0  0  0  0  0  0  0  0  0  0  0
   -1.8945    4.2560   11.4453 C   0  0  0  0  0  0  0  0  0  0  0  0
   -2.8469    3.9386   12.4516 C   0  0  0  0  0  0  0  0  0  0  0  0
   -4.2212    3.8072   12.1107 C   0  0  0  0  0  0  0  0  0  0  0  0
   -4.6411    3.9907   10.7655 C   0  0  0  0  0  0  0  0  0  0  0  0
   -3.6786    4.2963    9.7529 C   0  0  0  0  0  0  0  0  0  0  0  0
   -2.3186    4.4273   10.0884 C   0  0  0  0  0  0  0  0  0  0  0  0
  1  6  1  0  0  0  0
  2  4  1  0  0  0  0
  3  7  1  0  0  0  0
  4  5  1  0  0  0  0
  6  2  1  0  0  0  0
  7  8  1  0  0  0  0
  8  9  1  0  0  0  0
  9 10  1  0  0  0  0
 10 11  1  0  0  0  0
 10 12  1  0  0  0  0
 11 13  1  0  0  0  0
 13 15  1  0  0  0  0
 14 12  1  0  0  0  0
 15 14  1  0  0  0  0
 16 18  2  0  0  0  0
 16 22  1  0  0  0  0
 17 23  1  0  0  0  0
 17 29  1  0  0  0  0
 18 19  1  0  0  0  0
 18 26  1  0  0  0  0
 19 20  2  0  0  0  0
 20  3  1  0  0  0  0
 20 21  1  0  0  0  0
 21  5  1  0  0  0  0
 21 22  2  0  0  0  0
 23 24  2  0  0  0  0
 24 30  1  0  0  0  0
 25 26  2  0  0  0  0
 25 30  1  0  0  0  0
 26 27  1  0  0  0  0
 27 28  2  0  0  0  0
 28 29  1  0  0  0  0
 29 30  2  0  0  0  0
M  END
>  <CHROM.1>
64.10213478,-61.60599109,-167.49889124,-72.45576510,173.73742477,-65.50900237
-66.26809388,-118.85052743,155.57522041,95.33062057,147.78728991,-0.38836653
3.96403455,15.48449519,1.01099365,-0.17524445,1.51912251

>  <Name>
1uts_lig

>  <RI>
0

>  <Rbt.Current_Directory>
/home/itssahil/PROJECTS/Mol_Feturizer/New_Systems/rnas/1uts

>  <Rbt.Executable>
rbdock ($Id: //depot/dev/client3/rdock/2013.1/src/exe/rbdock.cxx#4 $)

>  <Rbt.Library>
libRbt.so (2013.1, Build901 2013/11/27)

>  <Rbt.Parameter_File>
/export/apps/rDock/src/rDock_2013.1_src/data/scripts/dock_solv.prm

>  <Rbt.Receptor>
prm/pocket_docking_5.prm

>  <SCORE>
-24.3904

>  <SCORE.INTER>
-22.425

>  <SCORE.INTER.CONST>
1

>  <SCORE.INTER.POLAR>
-0.894427

>  <SCORE.INTER.ROT>
10

>  <SCORE.INTER.SOLV>
8.49837

>  <SCORE.INTER.VDW>
-25.068

>  <SCORE.INTER.norm>
-0.7475

>  <SCORE.INTRA>
-1.96818

>  <SCORE.INTRA.DIHEDRAL>
-10.0047

>  <SCORE.INTRA.DIHEDRAL.0>
18.0451

>  <SCORE.INTRA.POLAR>
0.196815

>  <SCORE.INTRA.POLAR.0>
-0.196815

>  <SCORE.INTRA.REPUL>
0

>  <SCORE.INTRA.REPUL.0>
0

>  <SCORE.INTRA.SOLV>
0.218651

>  <SCORE.INTRA.SOLV.lig_0>
-14.7906

>  <SCORE.INTRA.VDW>
2.2557

>  <SCORE.INTRA.VDW.0>
-0.411701

>  <SCORE.INTRA.norm>
-0.0656059

>  <SCORE.RESTR>
0.00280612

>  <SCORE.RESTR.CAVITY>
0.00280612

>  <SCORE.RESTR.norm>
9.35372e-05

>  <SCORE.SYSTEM>
0

>  <SCORE.SYSTEM.CONST>
0

>  <SCORE.SYSTEM.DIHEDRAL>
0

>  <SCORE.SYSTEM.SOLV>
0

>  <SCORE.SYSTEM.norm>
0

>  <SCORE.heavy>
30

>  <SCORE.norm>
-0.813012

>  <RMSD>
4.087

$$$$
1uts_lig
 OpenBabel11021811413D
libRbt.so/2013.1/901 2013/11/27
 30 33  0  0  0  0  0  0  0  0999 V2000
    5.8088    0.0025   17.1390 N   0  0  0  0  0  0  0  0  0  0  0  0
    3.4335    0.5574   17.4337 C   0  0  0  0  0  0  0  0  0  0  0  0
    1.3544    5.4780   17.5557 C   0  0  0  0  0  0  0  0  0  0  0  0
    3.6449    2.0183   17.0260 C   0  0  0  0  0  0  0  0  0  0  0  0
    2.6617    2.8401   17.6724 O   0  0  0  0  0  0  0  0  0  0  0  0
    4.4365   -0.3303   16.6947 C   0  0  0  0  0  0  0  0  0  0  0  0
    0.4584    5.7341   18.7062 N   0  0  0  0  0  0  0  0  0  0  0  0
    0.3716    4.5159   19.5544 C   0  0  0  0  0  0  0  0  0  0  0  0
    1.2864    4.6674   20.7733 C   0  0  0  0  0  0  0  0  0  0  0  0
    2.6903    4.4312   20.3680 N   0  0  0  0  0  0  0  0  0  0  0  0
    3.3649    3.5892   21.3974 C   0  0  0  0  0  0  0  0  0  0  0  0
    3.3903    5.7391   20.2256 C   0  0  0  0  0  0  0  0  0  0  0  0
    4.8246    3.3448   20.9817 C   0  0  0  0  0  0  0  0  0  0  0  0
    4.8532    5.4955   19.8129 C   0  0  0  0  0  0  0  0  0  0  0  0
    5.5256    4.6525   20.8403 N   0  0  0  0  0  0  0  0  0  0  0  0
   -0.1096    2.0597   15.2347 C   0  0  0  0  0  0  0  0  0  0  0  0
   -5.4665    3.8447   12.1071 N   0  0  0  0  0  0  0  0  0  0  0  0
   -0.7771    3.3058   15.1644 C   0  0  0  0  0  0  0  0  0  0  0  0
   -0.2977    4.4093   15.9195 C   0  0  0  0  0  0  0  0  0  0  0  0
    0.8524    4.2671   16.7433 C   0  0  0  0  0  0  0  0  0  0  0  0
    1.5144    3.0053   16.8253 C   0  0  0  0  0  0  0  0  0  0  0  0
    1.0318    1.9051   16.0649 C   0  0  0  0  0  0  0  0  0  0  0  0
   -6.3862    3.6187   13.1563 C   0  0  0  0  0  0  0  0  0  0  0  0
   -5.7127    3.3606   14.3718 C   0  0  0  0  0  0  0  0  0  0  0  0
   -3.2091    3.2835   14.9101 C   0  0  0  0  0  0  0  0  0  0  0  0
   -1.9114    3.4380   14.3510 C   0  0  0  0  0  0  0  0  0  0  0  0
   -1.7661    3.7336   12.9677 C   0  0  0  0  0  0  0  0  0  0  0  0
   -2.9169    3.8765   12.1462 C   0  0  0  0  0  0  0  0  0  0  0  0
   -4.2215    3.7341   12.7145 C   0  0  0  0  0  0  0  0  0  0  0  0
   -4.3671    3.4411   14.0828 C   0  0  0  0  0  0  0  0  0  0  0  0
  1  6  1  0  0  0  0
  2  4  1  0  0  0  0
  3  7  1  0  0  0  0
  4  5  1  0  0  0  0
  6  2  1  0  0  0  0
  7  8  1  0  0  0  0
  8  9  1  0  0  0  0
  9 10  1  0  0  0  0
 10 11  1  0  0  0  0
 10 12  1  0  0  0  0
 11 13  1  0  0  0  0
 13 15  1  0  0  0  0
 14 12  1  0  0  0  0
 15 14  1  0  0  0  0
 16 18  2  0  0  0  0
 16 22  1  0  0  0  0
 17 23  1  0  0  0  0
 17 29  1  0  0  0  0
 18 19  1  0  0  0  0
 18 26  1  0  0  0  0
 19 20  2  0  0  0  0
 20  3  1  0  0  0  0
 20 21  1  0  0  0  0
 21  5  1  0  0  0  0
 21 22  2  0  0  0  0
 23 24  2  0  0  0  0
 24 30  1  0  0  0  0
 25 26  2  0  0  0  0
 25 30  1  0  0  0  0
 26 27  1  0  0  0  0
 27 28  2  0  0  0  0
 28 29  1  0  0  0  0
 29 30  2  0  0  0  0
M  END
>  <CHROM.1>
57.12964025,177.29369058,57.12985615,-92.66949158,65.13963276,100.41370807
-77.42148225,-137.27389550,95.22163045,73.85660263,-140.29298341,0.66090346
3.46385840,16.89652625,-0.45176686,0.48360412,-2.31262710

>  <Name>
1uts_lig

>  <RI>
0

>  <Rbt.Current_Directory>
/home/itssahil/PROJECTS/Mol_Feturizer/New_Systems/rnas/1uts

>  <Rbt.Executable>
rbdock ($Id: //depot/dev/client3/rdock/2013.1/src/exe/rbdock.cxx#4 $)

>  <Rbt.Library>
libRbt.so (2013.1, Build901 2013/11/27)

>  <Rbt.Parameter_File>
/export/apps/rDock/src/rDock_2013.1_src/data/scripts/dock_solv.prm

>  <Rbt.Receptor>
prm/pocket_docking_2.prm

>  <SCORE>
-14.3836

>  <SCORE.INTER>
-12.7184

>  <SCORE.INTER.CONST>
1

>  <SCORE.INTER.POLAR>
0

>  <SCORE.INTER.ROT>
10

>  <SCORE.INTER.SOLV>
9.23997

>  <SCORE.INTER.VDW>
-21.8256

>  <SCORE.INTER.norm>
-0.423947

>  <SCORE.INTRA>
-1.91677

>  <SCORE.INTRA.DIHEDRAL>
0.37025

>  <SCORE.INTRA.DIHEDRAL.0>
18.0451

>  <SCORE.INTRA.POLAR>
-0.803185

>  <SCORE.INTRA.POLAR.0>
-0.196815

>  <SCORE.INTRA.REPUL>
0

>  <SCORE.INTRA.REPUL.0>
0

>  <SCORE.INTRA.SOLV>
0.235471

>  <SCORE.INTRA.SOLV.lig_0>
-14.7906

>  <SCORE.INTRA.VDW>
0.511195

>  <SCORE.INTRA.VDW.0>
-0.411701

>  <SCORE.INTRA.norm>
-0.0638924

>  <SCORE.RESTR>
0.251559

>  <SCORE.RESTR.CAVITY>
0.251559

>  <SCORE.RESTR.norm>
0.00838528

>  <SCORE.SYSTEM>
0

>  <SCORE.SYSTEM.CONST>
0

>  <SCORE.SYSTEM.DIHEDRAL>
0

>  <SCORE.SYSTEM.SOLV>
0

>  <SCORE.SYSTEM.norm>
0

>  <SCORE.heavy>
30

>  <SCORE.norm>
-0.479454

>  <RMSD>
4.127

$$$$
1uts_lig
 OpenBabel11021811413D
libRbt.so/2013.1/901 2013/11/27
 30 33  0  0  0  0  0  0  0  0999 V2000
    0.5168    7.2298   18.4241 N   0  0  0  0  0  0  0  0  0  0  0  0
    1.0710    4.9486   17.6989 C   0  0  0  0  0  0  0  0  0  0  0  0
   -1.5372    1.0624   15.4162 C   0  0  0  0  0  0  0  0  0  0  0  0
   -0.4123    4.6236   17.5001 C   0  0  0  0  0  0  0  0  0  0  0  0
   -0.5484    3.6277   16.4757 O   0  0  0  0  0  0  0  0  0  0  0  0
    1.2225    5.9875   18.8115 C   0  0  0  0  0  0  0  0  0  0  0  0
   -2.1011   -0.0431   16.2236 N   0  0  0  0  0  0  0  0  0  0  0  0
   -1.0331   -0.6431   17.0665 C   0  0  0  0  0  0  0  0  0  0  0  0
   -0.2645   -1.6930   16.2588 C   0  0  0  0  0  0  0  0  0  0  0  0
    0.6186   -2.4617   17.1643 N   0  0  0  0  0  0  0  0  0  0  0  0
    1.8359   -1.6551   17.4667 C   0  0  0  0  0  0  0  0  0  0  0  0
    0.9956   -3.7479   16.5127 C   0  0  0  0  0  0  0  0  0  0  0  0
    2.7575   -2.4520   18.4042 C   0  0  0  0  0  0  0  0  0  0  0  0
    1.9215   -4.5451   17.4490 C   0  0  0  0  0  0  0  0  0  0  0  0
    3.1359   -3.7379   17.7524 N   0  0  0  0  0  0  0  0  0  0  0  0
   -4.1087    4.6013   15.6956 C   0  0  0  0  0  0  0  0  0  0  0  0
  -10.0220    3.2641   13.6146 N   0  0  0  0  0  0  0  0  0  0  0  0
   -4.6173    3.3923   15.1637 C   0  0  0  0  0  0  0  0  0  0  0  0
   -3.7785    2.2495   15.0756 C   0  0  0  0  0  0  0  0  0  0  0  0
   -2.4303    2.3149   15.5228 C   0  0  0  0  0  0  0  0  0  0  0  0
   -1.9147    3.5397   16.0437 C   0  0  0  0  0  0  0  0  0  0  0  0
   -2.7599    4.6796   16.1324 C   0  0  0  0  0  0  0  0  0  0  0  0
  -10.5750    3.5393   14.8859 C   0  0  0  0  0  0  0  0  0  0  0  0
   -9.5596    3.6765   15.8595 C   0  0  0  0  0  0  0  0  0  0  0  0
   -7.0104    3.5369   15.6452 C   0  0  0  0  0  0  0  0  0  0  0  0
   -5.9472    3.3358   14.7235 C   0  0  0  0  0  0  0  0  0  0  0  0
   -6.2346    3.0843   13.3536 C   0  0  0  0  0  0  0  0  0  0  0  0
   -7.5828    3.0364   12.9069 C   0  0  0  0  0  0  0  0  0  0  0  0
   -8.6498    3.2529   13.8340 C   0  0  0  0  0  0  0  0  0  0  0  0
   -8.3675    3.5013   15.1897 C   0  0  0  0  0  0  0  0  0  0  0  0
  1  6  1  0  0  0  0
  2  4  1  0  0  0  0
  3  7  1  0  0  0  0
  4  5  1  0  0  0  0
  6  2  1  0  0  0  0
  7  8  1  0  0  0  0
  8  9  1  0  0  0  0
  9 10  1  0  0  0  0
 10 11  1  0  0  0  0
 10 12  1  0  0  0  0
 11 13  1  0  0  0  0
 13 15  1  0  0  0  0
 14 12  1  0  0  0  0
 15 14  1  0  0  0  0
 16 18  2  0  0  0  0
 16 22  1  0  0  0  0
 17 23  1  0  0  0  0
 17 29  1  0  0  0  0
 18 19  1  0  0  0  0
 18 26  1  0  0  0  0
 19 20  2  0  0  0  0
 20  3  1  0  0  0  0
 20 21  1  0  0  0  0
 21  5  1  0  0  0  0
 21 22  2  0  0  0  0
 23 24  2  0  0  0  0
 24 30  1  0  0  0  0
 25 26  2  0  0  0  0
 25 30  1  0  0  0  0
 26 27  1  0  0  0  0
 27 28  2  0  0  0  0
 28 29  1  0  0  0  0
 29 30  2  0  0  0  0
M  END
>  <CHROM.1>
-20.91558245,-178.76991028,-131.70871234,-166.07095335,-61.15612972,-84.77203692
-169.41565695,-78.46528235,-62.95566937,-61.12659031,-152.03996537,-2.64698225
1.84883453,16.15053578,-0.44970769,-0.35000327,0.12051875

>  <Name>
1uts_lig

>  <RI>
0

>  <Rbt.Current_Directory>
/home/itssahil/PROJECTS/Mol_Feturizer/New_Systems/rnas/1uts

>  <Rbt.Executable>
rbdock ($Id: //depot/dev/client3/rdock/2013.1/src/exe/rbdock.cxx#4 $)

>  <Rbt.Library>
libRbt.so (2013.1, Build901 2013/11/27)

>  <Rbt.Parameter_File>
/export/apps/rDock/src/rDock_2013.1_src/data/scripts/dock_solv.prm

>  <Rbt.Receptor>
prm/pocket_docking_5.prm

>  <SCORE>
-27.3361

>  <SCORE.INTER>
-29.6182

>  <SCORE.INTER.CONST>
1

>  <SCORE.INTER.POLAR>
-2.48639

>  <SCORE.INTER.ROT>
10

>  <SCORE.INTER.SOLV>
9.92854

>  <SCORE.INTER.VDW>
-25.0337

>  <SCORE.INTER.norm>
-0.987273

>  <SCORE.INTRA>
2.28214

>  <SCORE.INTRA.DIHEDRAL>
-3.10554

>  <SCORE.INTRA.DIHEDRAL.0>
18.0451

>  <SCORE.INTRA.POLAR>
0.196815

>  <SCORE.INTRA.POLAR.0>
-0.196815

>  <SCORE.INTRA.REPUL>
0

>  <SCORE.INTRA.REPUL.0>
0

>  <SCORE.INTRA.SOLV>
-0.529003

>  <SCORE.INTRA.SOLV.lig_0>
-14.7906

>  <SCORE.INTRA.VDW>
3.43023

>  <SCORE.INTRA.VDW.0>
-0.411701

>  <SCORE.INTRA.norm>
0.0760712

>  <SCORE.RESTR>
0

>  <SCORE.RESTR.CAVITY>
0

>  <SCORE.RESTR.norm>
0

>  <SCORE.SYSTEM>
0

>  <SCORE.SYSTEM.CONST>
0

>  <SCORE.SYSTEM.DIHEDRAL>
0

>  <SCORE.SYSTEM.SOLV>
0

>  <SCORE.SYSTEM.norm>
0

>  <SCORE.heavy>
30

>  <SCORE.norm>
-0.911202

>  <RMSD>
4.134

$$$$
1uts_lig
 OpenBabel11021811413D
libRbt.so/2013.1/901 2013/11/27
 30 33  0  0  0  0  0  0  0  0999 V2000
    4.1731   -0.9611   17.1856 N   0  0  0  0  0  0  0  0  0  0  0  0
    2.9486    0.6101   18.6240 C   0  0  0  0  0  0  0  0  0  0  0  0
    0.6792    5.3618   17.8650 C   0  0  0  0  0  0  0  0  0  0  0  0
    1.7334    1.5396   18.6901 C   0  0  0  0  0  0  0  0  0  0  0  0
    2.0035    2.7308   17.9365 O   0  0  0  0  0  0  0  0  0  0  0  0
    3.0677    0.0230   17.2164 C   0  0  0  0  0  0  0  0  0  0  0  0
    2.1141    5.2820   18.2213 N   0  0  0  0  0  0  0  0  0  0  0  0
    2.3962    6.1849   19.3685 C   0  0  0  0  0  0  0  0  0  0  0  0
    3.9090    6.3627   19.5276 C   0  0  0  0  0  0  0  0  0  0  0  0
    4.5573    5.0335   19.5906 N   0  0  0  0  0  0  0  0  0  0  0  0
    4.1372    4.3396   20.8419 C   0  0  0  0  0  0  0  0  0  0  0  0
    6.0375    5.2038   19.5622 C   0  0  0  0  0  0  0  0  0  0  0  0
    4.8116    2.9600   20.9127 C   0  0  0  0  0  0  0  0  0  0  0  0
    6.7141    3.8232   19.6368 C   0  0  0  0  0  0  0  0  0  0  0  0
    6.2921    3.1298   20.8856 N   0  0  0  0  0  0  0  0  0  0  0  0
   -0.4352    2.1295   15.1218 C   0  0  0  0  0  0  0  0  0  0  0  0
   -5.0631    4.1101   11.1368 N   0  0  0  0  0  0  0  0  0  0  0  0
   -1.1085    3.3733   15.0668 C   0  0  0  0  0  0  0  0  0  0  0  0
   -0.7427    4.4163   15.9590 C   0  0  0  0  0  0  0  0  0  0  0  0
    0.2998    4.2162   16.9050 C   0  0  0  0  0  0  0  0  0  0  0  0
    0.9664    2.9557   16.9697 C   0  0  0  0  0  0  0  0  0  0  0  0
    0.5980    1.9164   16.0721 C   0  0  0  0  0  0  0  0  0  0  0  0
   -4.1891    4.2882   10.0404 C   0  0  0  0  0  0  0  0  0  0  0  0
   -2.8393    4.2220   10.4544 C   0  0  0  0  0  0  0  0  0  0  0  0
   -1.8205    3.8156   12.7697 C   0  0  0  0  0  0  0  0  0  0  0  0
   -2.1363    3.5627   14.1323 C   0  0  0  0  0  0  0  0  0  0  0  0
   -3.4957    3.4953   14.5442 C   0  0  0  0  0  0  0  0  0  0  0  0
   -4.5367    3.6783   13.5943 C   0  0  0  0  0  0  0  0  0  0  0  0
   -4.2158    3.9187   12.2216 C   0  0  0  0  0  0  0  0  0  0  0  0
   -2.8715    3.9864   11.8123 C   0  0  0  0  0  0  0  0  0  0  0  0
  1  6  1  0  0  0  0
  2  4  1  0  0  0  0
  3  7  1  0  0  0  0
  4  5  1  0  0  0  0
  6  2  1  0  0  0  0
  7  8  1  0  0  0  0
  8  9  1  0  0  0  0
  9 10  1  0  0  0  0
 10 11  1  0  0  0  0
 10 12  1  0  0  0  0
 11 13  1  0  0  0  0
 13 15  1  0  0  0  0
 14 12  1  0  0  0  0
 15 14  1  0  0  0  0
 16 18  2  0  0  0  0
 16 22  1  0  0  0  0
 17 23  1  0  0  0  0
 17 29  1  0  0  0  0
 18 19  1  0  0  0  0
 18 26  1  0  0  0  0
 19 20  2  0  0  0  0
 20  3  1  0  0  0  0
 20 21  1  0  0  0  0
 21  5  1  0  0  0  0
 21 22  2  0  0  0  0
 23 24  2  0  0  0  0
 24 30  1  0  0  0  0
 25 26  2  0  0  0  0
 25 30  1  0  0  0  0
 26 27  1  0  0  0  0
 27 28  2  0  0  0  0
 28 29  1  0  0  0  0
 29 30  2  0  0  0  0
M  END
>  <CHROM.1>
52.25485905,-70.94875045,-167.23245352,126.32830910,-175.28120510,-166.64197799
-52.36892161,-66.49572623,-77.82453578,-149.98529445,127.55337759,0.98672176
3.48939485,16.57766731,-0.15642625,0.72645335,-2.86707280

>  <Name>
1uts_lig

>  <RI>
0

>  <Rbt.Current_Directory>
/home/itssahil/PROJECTS/Mol_Feturizer/New_Systems/rnas/1uts

>  <Rbt.Executable>
rbdock ($Id: //depot/dev/client3/rdock/2013.1/src/exe/rbdock.cxx#4 $)

>  <Rbt.Library>
libRbt.so (2013.1, Build901 2013/11/27)

>  <Rbt.Parameter_File>
/export/apps/rDock/src/rDock_2013.1_src/data/scripts/dock_solv.prm

>  <Rbt.Receptor>
prm/pocket_docking_3.prm

>  <SCORE>
-20.8388

>  <SCORE.INTER>
-18.2562

>  <SCORE.INTER.CONST>
1

>  <SCORE.INTER.POLAR>
-0.799052

>  <SCORE.INTER.ROT>
10

>  <SCORE.INTER.SOLV>
9.02192

>  <SCORE.INTER.VDW>
-22.7813

>  <SCORE.INTER.norm>
-0.60854

>  <SCORE.INTRA>
-2.5826

>  <SCORE.INTRA.DIHEDRAL>
-0.884258

>  <SCORE.INTRA.DIHEDRAL.0>
18.0451

>  <SCORE.INTRA.POLAR>
-0.563826

>  <SCORE.INTRA.POLAR.0>
-0.196815

>  <SCORE.INTRA.REPUL>
0

>  <SCORE.INTRA.REPUL.0>
0

>  <SCORE.INTRA.SOLV>
0.241702

>  <SCORE.INTRA.SOLV.lig_0>
-14.7906

>  <SCORE.INTRA.VDW>
-0.344313

>  <SCORE.INTRA.VDW.0>
-0.411701

>  <SCORE.INTRA.norm>
-0.0860866

>  <SCORE.RESTR>
0

>  <SCORE.RESTR.CAVITY>
0

>  <SCORE.RESTR.norm>
0

>  <SCORE.SYSTEM>
0

>  <SCORE.SYSTEM.CONST>
0

>  <SCORE.SYSTEM.DIHEDRAL>
0

>  <SCORE.SYSTEM.SOLV>
0

>  <SCORE.SYSTEM.norm>
0

>  <SCORE.heavy>
30

>  <SCORE.norm>
-0.694626

>  <RMSD>
4.169

$$$$
1uts_lig
 OpenBabel11021811413D
libRbt.so/2013.1/901 2013/11/27
 30 33  0  0  0  0  0  0  0  0999 V2000
    4.3931   -0.8690   16.9167 N   0  0  0  0  0  0  0  0  0  0  0  0
    2.9922    1.1480   16.9958 C   0  0  0  0  0  0  0  0  0  0  0  0
    0.0721    5.5710   17.7305 C   0  0  0  0  0  0  0  0  0  0  0  0
    2.0049    1.9397   17.8582 C   0  0  0  0  0  0  0  0  0  0  0  0
    1.8532    3.2605   17.3176 O   0  0  0  0  0  0  0  0  0  0  0  0
    3.3896   -0.1379   17.7229 C   0  0  0  0  0  0  0  0  0  0  0  0
    0.7559    5.0136   18.9195 N   0  0  0  0  0  0  0  0  0  0  0  0
    1.2887    6.1215   19.7561 C   0  0  0  0  0  0  0  0  0  0  0  0
    1.8776    5.5552   21.0515 C   0  0  0  0  0  0  0  0  0  0  0  0
    3.3007    5.2101   20.8361 N   0  0  0  0  0  0  0  0  0  0  0  0
    3.3912    3.8525   20.2257 C   0  0  0  0  0  0  0  0  0  0  0  0
    4.0201    5.2427   22.1408 C   0  0  0  0  0  0  0  0  0  0  0  0
    4.8683    3.4889   20.0040 C   0  0  0  0  0  0  0  0  0  0  0  0
    5.4986    4.8751   21.9206 C   0  0  0  0  0  0  0  0  0  0  0  0
    5.5880    3.5201   21.3088 N   0  0  0  0  0  0  0  0  0  0  0  0
   -0.8671    2.4052   14.8478 C   0  0  0  0  0  0  0  0  0  0  0  0
   -6.6442    3.7118   12.2531 N   0  0  0  0  0  0  0  0  0  0  0  0
   -1.7584    3.4896   15.0292 C   0  0  0  0  0  0  0  0  0  0  0  0
   -1.4482    4.5119   15.9653 C   0  0  0  0  0  0  0  0  0  0  0  0
   -0.2437    4.4510   16.7186 C   0  0  0  0  0  0  0  0  0  0  0  0
    0.6458    3.3482   16.5459 C   0  0  0  0  0  0  0  0  0  0  0  0
    0.3315    2.3295   15.6051 C   0  0  0  0  0  0  0  0  0  0  0  0
   -7.4878    3.4947   13.3662 C   0  0  0  0  0  0  0  0  0  0  0  0
   -6.7311    3.3155   14.5464 C   0  0  0  0  0  0  0  0  0  0  0  0
   -4.1982    3.3604   14.9292 C   0  0  0  0  0  0  0  0  0  0  0  0
   -2.9447    3.5420   14.2840 C   0  0  0  0  0  0  0  0  0  0  0  0
   -2.8968    3.7838   12.8834 C   0  0  0  0  0  0  0  0  0  0  0  0
   -4.1006    3.8458   12.1308 C   0  0  0  0  0  0  0  0  0  0  0  0
   -5.3609    3.6765   12.7851 C   0  0  0  0  0  0  0  0  0  0  0  0
   -5.4102    3.4367   14.1705 C   0  0  0  0  0  0  0  0  0  0  0  0
  1  6  1  0  0  0  0
  2  4  1  0  0  0  0
  3  7  1  0  0  0  0
  4  5  1  0  0  0  0
  6  2  1  0  0  0  0
  7  8  1  0  0  0  0
  8  9  1  0  0  0  0
  9 10  1  0  0  0  0
 10 11  1  0  0  0  0
 10 12  1  0  0  0  0
 11 13  1  0  0  0  0
 13 15  1  0  0  0  0
 14 12  1  0  0  0  0
 15 14  1  0  0  0  0
 16 18  2  0  0  0  0
 16 22  1  0  0  0  0
 17 23  1  0  0  0  0
 17 29  1  0  0  0  0
 18 19  1  0  0  0  0
 18 26  1  0  0  0  0
 19 20  2  0  0  0  0
 20  3  1  0  0  0  0
 20 21  1  0  0  0  0
 21  5  1  0  0  0  0
 21 22  2  0  0  0  0
 23 24  2  0  0  0  0
 24 30  1  0  0  0  0
 25 26  2  0  0  0  0
 25 30  1  0  0  0  0
 26 27  1  0  0  0  0
 27 28  2  0  0  0  0
 28 29  1  0  0  0  0
 29 30  2  0  0  0  0
M  END
>  <CHROM.1>
163.23050934,167.85576583,168.97968061,100.14068280,-177.29929477,174.60005054
88.47536321,-83.79870561,110.90967777,144.12938239,133.37934339,0.07815610
3.52334675,17.02953227,-0.41778956,0.50334392,-2.41979808

>  <Name>
1uts_lig

>  <RI>
0

>  <Rbt.Current_Directory>
/home/itssahil/PROJECTS/Mol_Feturizer/New_Systems/rnas/1uts

>  <Rbt.Executable>
rbdock ($Id: //depot/dev/client3/rdock/2013.1/src/exe/rbdock.cxx#4 $)

>  <Rbt.Library>
libRbt.so (2013.1, Build901 2013/11/27)

>  <Rbt.Parameter_File>
/export/apps/rDock/src/rDock_2013.1_src/data/scripts/dock_solv.prm

>  <Rbt.Receptor>
prm/pocket_docking_2.prm

>  <SCORE>
-18.3853

>  <SCORE.INTER>
-17.2641

>  <SCORE.INTER.CONST>
1

>  <SCORE.INTER.POLAR>
-0.8

>  <SCORE.INTER.ROT>
10

>  <SCORE.INTER.SOLV>
9.52251

>  <SCORE.INTER.VDW>
-22.2836

>  <SCORE.INTER.norm>
-0.575471

>  <SCORE.INTRA>
-1.52574

>  <SCORE.INTRA.DIHEDRAL>
0.200746

>  <SCORE.INTRA.DIHEDRAL.0>
18.0451

>  <SCORE.INTRA.POLAR>
-0.524715

>  <SCORE.INTRA.POLAR.0>
-0.196815

>  <SCORE.INTRA.REPUL>
0

>  <SCORE.INTRA.REPUL.0>
0

>  <SCORE.INTRA.SOLV>
0.0669019

>  <SCORE.INTRA.SOLV.lig_0>
-14.7906

>  <SCORE.INTRA.VDW>
0.12447

>  <SCORE.INTRA.VDW.0>
-0.411701

>  <SCORE.INTRA.norm>
-0.0508579

>  <SCORE.RESTR>
0.404611

>  <SCORE.RESTR.CAVITY>
0.404611

>  <SCORE.RESTR.norm>
0.013487

>  <SCORE.SYSTEM>
0

>  <SCORE.SYSTEM.CONST>
0

>  <SCORE.SYSTEM.DIHEDRAL>
0

>  <SCORE.SYSTEM.SOLV>
0

>  <SCORE.SYSTEM.norm>
0

>  <SCORE.heavy>
30

>  <SCORE.norm>
-0.612842

>  <RMSD>
4.184

$$$$
1uts_lig
 OpenBabel11021811413D
libRbt.so/2013.1/901 2013/11/27
 30 33  0  0  0  0  0  0  0  0999 V2000
    1.7258    5.0184   21.1077 N   0  0  0  0  0  0  0  0  0  0  0  0
    0.3818    4.9617   19.0515 C   0  0  0  0  0  0  0  0  0  0  0  0
   -1.1556    3.8222   14.3093 C   0  0  0  0  0  0  0  0  0  0  0  0
   -0.9775    4.5665   18.4673 C   0  0  0  0  0  0  0  0  0  0  0  0
   -0.9953    4.8593   17.0624 O   0  0  0  0  0  0  0  0  0  0  0  0
    0.4137    4.6280   20.5441 C   0  0  0  0  0  0  0  0  0  0  0  0
   -0.0798    3.2043   15.1173 N   0  0  0  0  0  0  0  0  0  0  0  0
   -0.4259    1.7889   15.4134 C   0  0  0  0  0  0  0  0  0  0  0  0
    0.7087    1.1334   16.2062 C   0  0  0  0  0  0  0  0  0  0  0  0
    0.3821   -0.2898   16.4485 N   0  0  0  0  0  0  0  0  0  0  0  0
    1.2144   -0.8011   17.5754 C   0  0  0  0  0  0  0  0  0  0  0  0
    0.6453   -1.0751   15.2096 C   0  0  0  0  0  0  0  0  0  0  0  0
    0.8806   -2.2804   17.8274 C   0  0  0  0  0  0  0  0  0  0  0  0
    0.3149   -2.5572   15.4619 C   0  0  0  0  0  0  0  0  0  0  0  0
    1.1448   -3.0664   16.5890 N   0  0  0  0  0  0  0  0  0  0  0  0
   -4.7377    4.5085   16.7409 C   0  0  0  0  0  0  0  0  0  0  0  0
  -10.0640    3.1226   13.4877 N   0  0  0  0  0  0  0  0  0  0  0  0
   -4.8588    4.0261   15.4158 C   0  0  0  0  0  0  0  0  0  0  0  0
   -3.6941    3.8063   14.6332 C   0  0  0  0  0  0  0  0  0  0  0  0
   -2.4064    4.0664   15.1775 C   0  0  0  0  0  0  0  0  0  0  0  0
   -2.2874    4.5683   16.5083 C   0  0  0  0  0  0  0  0  0  0  0  0
   -3.4567    4.7835   17.2881 C   0  0  0  0  0  0  0  0  0  0  0  0
  -10.7512    3.4543   14.6774 C   0  0  0  0  0  0  0  0  0  0  0  0
   -9.8446    3.8023   15.7043 C   0  0  0  0  0  0  0  0  0  0  0  0
   -7.2862    3.9387   15.6981 C   0  0  0  0  0  0  0  0  0  0  0  0
   -6.1318    3.7734   14.8854 C   0  0  0  0  0  0  0  0  0  0  0  0
   -6.2708    3.3582   13.5324 C   0  0  0  0  0  0  0  0  0  0  0  0
   -7.5623    3.1113   12.9934 C   0  0  0  0  0  0  0  0  0  0  0  0
   -8.7227    3.2919   13.8094 C   0  0  0  0  0  0  0  0  0  0  0  0
   -8.5870    3.7020   15.1484 C   0  0  0  0  0  0  0  0  0  0  0  0
  1  6  1  0  0  0  0
  2  4  1  0  0  0  0
  3  7  1  0  0  0  0
  4  5  1  0  0  0  0
  6  2  1  0  0  0  0
  7  8  1  0  0  0  0
  8  9  1  0  0  0  0
  9 10  1  0  0  0  0
 10 11  1  0  0  0  0
 10 12  1  0  0  0  0
 11 13  1  0  0  0  0
 13 15  1  0  0  0  0
 14 12  1  0  0  0  0
 15 14  1  0  0  0  0
 16 18  2  0  0  0  0
 16 22  1  0  0  0  0
 17 23  1  0  0  0  0
 17 29  1  0  0  0  0
 18 19  1  0  0  0  0
 18 26  1  0  0  0  0
 19 20  2  0  0  0  0
 20  3  1  0  0  0  0
 20 21  1  0  0  0  0
 21  5  1  0  0  0  0
 21 22  2  0  0  0  0
 23 24  2  0  0  0  0
 24 30  1  0  0  0  0
 25 26  2  0  0  0  0
 25 30  1  0  0  0  0
 26 27  1  0  0  0  0
 27 28  2  0  0  0  0
 28 29  1  0  0  0  0
 29 30  2  0  0  0  0
M  END
>  <CHROM.1>
-60.26366409,-178.99479211,72.36357230,-176.68886648,-179.67131078,177.97693964
-177.67550132,-160.97305475,-3.09426135,-139.34859057,-145.45417648,-2.86601702
2.64437734,16.14865719,-0.11569348,-0.40036332,0.45790493

>  <Name>
1uts_lig

>  <RI>
0

>  <Rbt.Current_Directory>
/home/itssahil/PROJECTS/Mol_Feturizer/New_Systems/rnas/1uts

>  <Rbt.Executable>
rbdock ($Id: //depot/dev/client3/rdock/2013.1/src/exe/rbdock.cxx#4 $)

>  <Rbt.Library>
libRbt.so (2013.1, Build901 2013/11/27)

>  <Rbt.Parameter_File>
/export/apps/rDock/src/rDock_2013.1_src/data/scripts/dock_solv.prm

>  <Rbt.Receptor>
prm/pocket_docking_7.prm

>  <SCORE>
-42.5363

>  <SCORE.INTER>
-36.2653

>  <SCORE.INTER.CONST>
1

>  <SCORE.INTER.POLAR>
-1.67178

>  <SCORE.INTER.ROT>
10

>  <SCORE.INTER.SOLV>
10.0908

>  <SCORE.INTER.VDW>
-32.2345

>  <SCORE.INTER.norm>
-1.20884

>  <SCORE.INTRA>
-6.27096

>  <SCORE.INTRA.DIHEDRAL>
-14.5194

>  <SCORE.INTRA.DIHEDRAL.0>
18.0451

>  <SCORE.INTRA.POLAR>
-0.556317

>  <SCORE.INTRA.POLAR.0>
-0.196815

>  <SCORE.INTRA.REPUL>
0

>  <SCORE.INTRA.REPUL.0>
0

>  <SCORE.INTRA.SOLV>
-0.284252

>  <SCORE.INTRA.SOLV.lig_0>
-14.7906

>  <SCORE.INTRA.VDW>
3.02232

>  <SCORE.INTRA.VDW.0>
-0.411701

>  <SCORE.INTRA.norm>
-0.209032

>  <SCORE.RESTR>
0

>  <SCORE.RESTR.CAVITY>
0

>  <SCORE.RESTR.norm>
0

>  <SCORE.SYSTEM>
0

>  <SCORE.SYSTEM.CONST>
0

>  <SCORE.SYSTEM.DIHEDRAL>
0

>  <SCORE.SYSTEM.SOLV>
0

>  <SCORE.SYSTEM.norm>
0

>  <SCORE.heavy>
30

>  <SCORE.norm>
-1.41788

>  <RMSD>
4.196

$$$$
1uts_lig
 OpenBabel11021811413D
libRbt.so/2013.1/901 2013/11/27
 30 33  0  0  0  0  0  0  0  0999 V2000
    4.5642   -0.5259   16.5853 N   0  0  0  0  0  0  0  0  0  0  0  0
    3.6326    1.7477   16.5876 C   0  0  0  0  0  0  0  0  0  0  0  0
    0.4981    5.2709   17.4561 C   0  0  0  0  0  0  0  0  0  0  0  0
    2.1154    1.8526   16.4077 C   0  0  0  0  0  0  0  0  0  0  0  0
    1.7872    3.1445   15.8757 O   0  0  0  0  0  0  0  0  0  0  0  0
    3.9630    0.5218   17.4410 C   0  0  0  0  0  0  0  0  0  0  0  0
    0.9900    4.5471   18.6503 N   0  0  0  0  0  0  0  0  0  0  0  0
    1.8200    5.4585   19.4818 C   0  0  0  0  0  0  0  0  0  0  0  0
    3.1530    5.7310   18.7786 C   0  0  0  0  0  0  0  0  0  0  0  0
    4.0343    4.5501   18.9187 N   0  0  0  0  0  0  0  0  0  0  0  0
    4.5351    4.4731   20.3213 C   0  0  0  0  0  0  0  0  0  0  0  0
    5.1737    4.6679   17.9654 C   0  0  0  0  0  0  0  0  0  0  0  0
    5.4541    3.2497   20.4697 C   0  0  0  0  0  0  0  0  0  0  0  0
    6.0966    3.4452   18.1157 C   0  0  0  0  0  0  0  0  0  0  0  0
    6.5945    3.3676   19.5173 N   0  0  0  0  0  0  0  0  0  0  0  0
   -1.8057    2.5809   14.8733 C   0  0  0  0  0  0  0  0  0  0  0  0
   -8.0539    3.9227   15.1046 N   0  0  0  0  0  0  0  0  0  0  0  0
   -2.4653    3.5785   15.6304 C   0  0  0  0  0  0  0  0  0  0  0  0
   -1.7128    4.4465   16.4656 C   0  0  0  0  0  0  0  0  0  0  0  0
   -0.2986    4.3188   16.5415 C   0  0  0  0  0  0  0  0  0  0  0  0
    0.3628    3.3016   15.7897 C   0  0  0  0  0  0  0  0  0  0  0  0
   -0.3954    2.4376   14.9529 C   0  0  0  0  0  0  0  0  0  0  0  0
   -8.1349    3.4405   13.7784 C   0  0  0  0  0  0  0  0  0  0  0  0
   -6.8494    3.1531   13.2660 C   0  0  0  0  0  0  0  0  0  0  0  0
   -4.5373    3.3421   14.3535 C   0  0  0  0  0  0  0  0  0  0  0  0
   -3.8600    3.6974   15.5516 C   0  0  0  0  0  0  0  0  0  0  0  0
   -4.5999    4.1668   16.6716 C   0  0  0  0  0  0  0  0  0  0  0  0
   -6.0145    4.2782   16.5936 C   0  0  0  0  0  0  0  0  0  0  0  0
   -6.6943    3.9068   15.3915 C   0  0  0  0  0  0  0  0  0  0  0  0
   -5.9639    3.4427   14.2822 C   0  0  0  0  0  0  0  0  0  0  0  0
  1  6  1  0  0  0  0
  2  4  1  0  0  0  0
  3  7  1  0  0  0  0
  4  5  1  0  0  0  0
  6  2  1  0  0  0  0
  7  8  1  0  0  0  0
  8  9  1  0  0  0  0
  9 10  1  0  0  0  0
 10 11  1  0  0  0  0
 10 12  1  0  0  0  0
 11 13  1  0  0  0  0
 13 15  1  0  0  0  0
 14 12  1  0  0  0  0
 15 14  1  0  0  0  0
 16 18  2  0  0  0  0
 16 22  1  0  0  0  0
 17 23  1  0  0  0  0
 17 29  1  0  0  0  0
 18 19  1  0  0  0  0
 18 26  1  0  0  0  0
 19 20  2  0  0  0  0
 20  3  1  0  0  0  0
 20 21  1  0  0  0  0
 21  5  1  0  0  0  0
 21 22  2  0  0  0  0
 23 24  2  0  0  0  0
 24 30  1  0  0  0  0
 25 26  2  0  0  0  0
 25 30  1  0  0  0  0
 26 27  1  0  0  0  0
 27 28  2  0  0  0  0
 28 29  1  0  0  0  0
 29 30  2  0  0  0  0
M  END
>  <CHROM.1>
40.12192934,167.08766929,176.80314385,-175.81312330,107.80016372,-71.43856999
-75.89728814,-73.10934702,-30.08544993,107.57503243,117.73321738,0.01991318
3.48282937,16.81389145,-0.17775466,0.28332522,-2.46092878

>  <Name>
1uts_lig

>  <RI>
0

>  <Rbt.Current_Directory>
/home/itssahil/PROJECTS/Mol_Feturizer/New_Systems/rnas/1uts

>  <Rbt.Executable>
rbdock ($Id: //depot/dev/client3/rdock/2013.1/src/exe/rbdock.cxx#4 $)

>  <Rbt.Library>
libRbt.so (2013.1, Build901 2013/11/27)

>  <Rbt.Parameter_File>
/export/apps/rDock/src/rDock_2013.1_src/data/scripts/dock_solv.prm

>  <Rbt.Receptor>
prm/pocket_docking_3.prm

>  <SCORE>
-21.8536

>  <SCORE.INTER>
-20.2985

>  <SCORE.INTER.CONST>
1

>  <SCORE.INTER.POLAR>
-0.598233

>  <SCORE.INTER.ROT>
10

>  <SCORE.INTER.SOLV>
9.1475

>  <SCORE.INTER.VDW>
-24.854

>  <SCORE.INTER.norm>
-0.676615

>  <SCORE.INTRA>
-1.55594

>  <SCORE.INTRA.DIHEDRAL>
-4.10867

>  <SCORE.INTRA.DIHEDRAL.0>
18.0451

>  <SCORE.INTRA.POLAR>
0.196815

>  <SCORE.INTRA.POLAR.0>
-0.196815

>  <SCORE.INTRA.REPUL>
0.000686314

>  <SCORE.INTRA.REPUL.0>
0

>  <SCORE.INTRA.SOLV>
0.078953

>  <SCORE.INTRA.SOLV.lig_0>
-14.7906

>  <SCORE.INTRA.VDW>
-0.213682

>  <SCORE.INTRA.VDW.0>
-0.411701

>  <SCORE.INTRA.norm>
-0.0518645

>  <SCORE.RESTR>
0.000744844

>  <SCORE.RESTR.CAVITY>
0.000744844

>  <SCORE.RESTR.norm>
2.48281e-05

>  <SCORE.SYSTEM>
0

>  <SCORE.SYSTEM.CONST>
0

>  <SCORE.SYSTEM.DIHEDRAL>
0

>  <SCORE.SYSTEM.SOLV>
0

>  <SCORE.SYSTEM.norm>
0

>  <SCORE.heavy>
30

>  <SCORE.norm>
-0.728455

>  <RMSD>
4.248

$$$$
1uts_lig
 OpenBabel11021811413D
libRbt.so/2013.1/901 2013/11/27
 30 33  0  0  0  0  0  0  0  0999 V2000
    0.7076    4.1427   15.1213 N   0  0  0  0  0  0  0  0  0  0  0  0
    0.7669    4.8915   17.4607 C   0  0  0  0  0  0  0  0  0  0  0  0
   -1.7207    1.6323   19.4331 C   0  0  0  0  0  0  0  0  0  0  0  0
   -0.2129    5.4975   18.4697 C   0  0  0  0  0  0  0  0  0  0  0  0
   -0.8715    4.4428   19.1864 O   0  0  0  0  0  0  0  0  0  0  0  0
   -0.0077    4.0858   16.4161 C   0  0  0  0  0  0  0  0  0  0  0  0
   -0.2594    1.7991   19.2633 N   0  0  0  0  0  0  0  0  0  0  0  0
    0.4573    1.0518   20.3304 C   0  0  0  0  0  0  0  0  0  0  0  0
    1.9470    1.4062   20.2995 C   0  0  0  0  0  0  0  0  0  0  0  0
    2.5272    0.9830   19.0053 N   0  0  0  0  0  0  0  0  0  0  0  0
    3.9276    0.5184   19.2219 C   0  0  0  0  0  0  0  0  0  0  0  0
    2.5011    2.1295   18.0536 C   0  0  0  0  0  0  0  0  0  0  0  0
    4.5350    0.0816   17.8790 C   0  0  0  0  0  0  0  0  0  0  0  0
    3.1125    1.6944   16.7096 C   0  0  0  0  0  0  0  0  0  0  0  0
    4.5102    1.2282   16.9271 N   0  0  0  0  0  0  0  0  0  0  0  0
   -3.9110    4.5072   16.9528 C   0  0  0  0  0  0  0  0  0  0  0  0
   -8.7917    1.6655   13.9340 N   0  0  0  0  0  0  0  0  0  0  0  0
   -4.3416    3.1612   17.0303 C   0  0  0  0  0  0  0  0  0  0  0  0
   -3.6270    2.2346   17.8356 C   0  0  0  0  0  0  0  0  0  0  0  0
   -2.4823    2.6555   18.5665 C   0  0  0  0  0  0  0  0  0  0  0  0
   -2.0402    4.0095   18.4740 C   0  0  0  0  0  0  0  0  0  0  0  0
   -2.7613    4.9333   17.6688 C   0  0  0  0  0  0  0  0  0  0  0  0
   -8.6271    2.6299   12.9139 C   0  0  0  0  0  0  0  0  0  0  0  0
   -7.5104    3.4561   13.1751 C   0  0  0  0  0  0  0  0  0  0  0  0
   -5.8271    3.4275   15.1063 C   0  0  0  0  0  0  0  0  0  0  0  0
   -5.4703    2.7532   16.3057 C   0  0  0  0  0  0  0  0  0  0  0  0
   -6.2558    1.6604   16.7650 C   0  0  0  0  0  0  0  0  0  0  0  0
   -7.3943    1.2419   16.0246 C   0  0  0  0  0  0  0  0  0  0  0  0
   -7.7426    1.9135   14.8111 C   0  0  0  0  0  0  0  0  0  0  0  0
   -6.9671    2.9952   14.3554 C   0  0  0  0  0  0  0  0  0  0  0  0
  1  6  1  0  0  0  0
  2  4  1  0  0  0  0
  3  7  1  0  0  0  0
  4  5  1  0  0  0  0
  6  2  1  0  0  0  0
  7  8  1  0  0  0  0
  8  9  1  0  0  0  0
  9 10  1  0  0  0  0
 10 11  1  0  0  0  0
 10 12  1  0  0  0  0
 11 13  1  0  0  0  0
 13 15  1  0  0  0  0
 14 12  1  0  0  0  0
 15 14  1  0  0  0  0
 16 18  2  0  0  0  0
 16 22  1  0  0  0  0
 17 23  1  0  0  0  0
 17 29  1  0  0  0  0
 18 19  1  0  0  0  0
 18 26  1  0  0  0  0
 19 20  2  0  0  0  0
 20  3  1  0  0  0  0
 20 21  1  0  0  0  0
 21  5  1  0  0  0  0
 21 22  2  0  0  0  0
 23 24  2  0  0  0  0
 24 30  1  0  0  0  0
 25 26  2  0  0  0  0
 25 30  1  0  0  0  0
 26 27  1  0  0  0  0
 27 28  2  0  0  0  0
 28 29  1  0  0  0  0
 29 30  2  0  0  0  0
M  END
>  <CHROM.1>
51.85164450,64.02501419,166.30710466,-87.35017963,148.64782939,-170.71239834
-62.67262440,-144.92427170,27.55231554,137.07525913,149.35223886,-1.84406886
2.61361478,17.15987762,-0.32246447,-0.15386720,-0.91083813

>  <Name>
1uts_lig

>  <RI>
0

>  <Rbt.Current_Directory>
/home/itssahil/PROJECTS/Mol_Feturizer/New_Systems/rnas/1uts

>  <Rbt.Executable>
rbdock ($Id: //depot/dev/client3/rdock/2013.1/src/exe/rbdock.cxx#4 $)

>  <Rbt.Library>
libRbt.so (2013.1, Build901 2013/11/27)

>  <Rbt.Parameter_File>
/export/apps/rDock/src/rDock_2013.1_src/data/scripts/dock_solv.prm

>  <Rbt.Receptor>
prm/pocket_docking_5.prm

>  <SCORE>
-18.7512

>  <SCORE.INTER>
-15.9179

>  <SCORE.INTER.CONST>
1

>  <SCORE.INTER.POLAR>
-1.57922

>  <SCORE.INTER.ROT>
10

>  <SCORE.INTER.SOLV>
5.54562

>  <SCORE.INTER.VDW>
-17.4631

>  <SCORE.INTER.norm>
-0.530596

>  <SCORE.INTRA>
-2.83333

>  <SCORE.INTRA.DIHEDRAL>
-5.87569

>  <SCORE.INTRA.DIHEDRAL.0>
18.0451

>  <SCORE.INTRA.POLAR>
-0.573301

>  <SCORE.INTRA.POLAR.0>
-0.196815

>  <SCORE.INTRA.REPUL>
0

>  <SCORE.INTRA.REPUL.0>
0

>  <SCORE.INTRA.SOLV>
0.444467

>  <SCORE.INTRA.SOLV.lig_0>
-14.7906

>  <SCORE.INTRA.VDW>
1.83151

>  <SCORE.INTRA.VDW.0>
-0.411701

>  <SCORE.INTRA.norm>
-0.0944444

>  <SCORE.RESTR>
0

>  <SCORE.RESTR.CAVITY>
0

>  <SCORE.RESTR.norm>
0

>  <SCORE.SYSTEM>
0

>  <SCORE.SYSTEM.CONST>
0

>  <SCORE.SYSTEM.DIHEDRAL>
0

>  <SCORE.SYSTEM.SOLV>
0

>  <SCORE.SYSTEM.norm>
0

>  <SCORE.heavy>
30

>  <SCORE.norm>
-0.62504

>  <RMSD>
4.268

$$$$
1uts_lig
 OpenBabel11021811413D
libRbt.so/2013.1/901 2013/11/27
 30 33  0  0  0  0  0  0  0  0999 V2000
   -0.6000   -0.4768   21.3772 N   0  0  0  0  0  0  0  0  0  0  0  0
   -1.1050    1.5754   20.1241 C   0  0  0  0  0  0  0  0  0  0  0  0
   -2.7811    0.6752   16.0968 C   0  0  0  0  0  0  0  0  0  0  0  0
   -1.5166    2.1243   18.7549 C   0  0  0  0  0  0  0  0  0  0  0  0
   -0.5737    1.6889   17.7644 O   0  0  0  0  0  0  0  0  0  0  0  0
   -1.0273    0.0489   20.0610 C   0  0  0  0  0  0  0  0  0  0  0  0
   -2.1675   -0.6016   15.6664 N   0  0  0  0  0  0  0  0  0  0  0  0
   -1.0740   -0.9727   16.6032 C   0  0  0  0  0  0  0  0  0  0  0  0
   -0.3178   -2.1890   16.0608 C   0  0  0  0  0  0  0  0  0  0  0  0
    0.6322   -2.6759   17.0861 N   0  0  0  0  0  0  0  0  0  0  0  0
    1.7351   -1.6850   17.2455 C   0  0  0  0  0  0  0  0  0  0  0  0
    1.1773   -3.9980   16.6666 C   0  0  0  0  0  0  0  0  0  0  0  0
    2.7260   -2.1893   18.3072 C   0  0  0  0  0  0  0  0  0  0  0  0
    2.1725   -4.5022   17.7272 C   0  0  0  0  0  0  0  0  0  0  0  0
    3.2725   -3.5109   17.8875 N   0  0  0  0  0  0  0  0  0  0  0  0
   -0.2923    4.0586   14.8425 C   0  0  0  0  0  0  0  0  0  0  0  0
   -2.2071    6.3093    9.1593 N   0  0  0  0  0  0  0  0  0  0  0  0
   -1.3319    3.5905   14.0038 C   0  0  0  0  0  0  0  0  0  0  0  0
   -2.1343    2.4934   14.4161 C   0  0  0  0  0  0  0  0  0  0  0  0
   -1.8988    1.8657   15.6701 C   0  0  0  0  0  0  0  0  0  0  0  0
   -0.8394    2.3289   16.5070 C   0  0  0  0  0  0  0  0  0  0  0  0
   -0.0414    3.4295   16.0905 C   0  0  0  0  0  0  0  0  0  0  0  0
   -2.3547    7.6031    9.7090 C   0  0  0  0  0  0  0  0  0  0  0  0
   -2.2414    7.5695   11.1174 C   0  0  0  0  0  0  0  0  0  0  0  0
   -1.7992    5.6129   12.7113 C   0  0  0  0  0  0  0  0  0  0  0  0
   -1.5573    4.2134   12.7682 C   0  0  0  0  0  0  0  0  0  0  0  0
   -1.5373    3.4481   11.5698 C   0  0  0  0  0  0  0  0  0  0  0  0
   -1.7567    4.0824   10.3171 C   0  0  0  0  0  0  0  0  0  0  0  0
   -1.9861    5.4928   10.2619 C   0  0  0  0  0  0  0  0  0  0  0  0
   -2.0068    6.2515   11.4465 C   0  0  0  0  0  0  0  0  0  0  0  0
  1  6  1  0  0  0  0
  2  4  1  0  0  0  0
  3  7  1  0  0  0  0
  4  5  1  0  0  0  0
  6  2  1  0  0  0  0
  7  8  1  0  0  0  0
  8  9  1  0  0  0  0
  9 10  1  0  0  0  0
 10 11  1  0  0  0  0
 10 12  1  0  0  0  0
 11 13  1  0  0  0  0
 13 15  1  0  0  0  0
 14 12  1  0  0  0  0
 15 14  1  0  0  0  0
 16 18  2  0  0  0  0
 16 22  1  0  0  0  0
 17 23  1  0  0  0  0
 17 29  1  0  0  0  0
 18 19  1  0  0  0  0
 18 26  1  0  0  0  0
 19 20  2  0  0  0  0
 20  3  1  0  0  0  0
 20 21  1  0  0  0  0
 21  5  1  0  0  0  0
 21 22  2  0  0  0  0
 23 24  2  0  0  0  0
 24 30  1  0  0  0  0
 25 26  2  0  0  0  0
 25 30  1  0  0  0  0
 26 27  1  0  0  0  0
 27 28  2  0  0  0  0
 28 29  1  0  0  0  0
 29 30  2  0  0  0  0
M  END
>  <CHROM.1>
-176.53541275,-57.67235956,78.82213365,-172.61106789,178.74665619,-172.55142024
-171.61532690,-69.59891321,-55.77741017,91.56750319,-78.55317506,-0.72577617
1.53998443,15.43352462,0.96024842,-1.11041755,1.83433680

>  <Name>
1uts_lig

>  <RI>
0

>  <Rbt.Current_Directory>
/home/itssahil/PROJECTS/Mol_Feturizer/New_Systems/rnas/1uts

>  <Rbt.Executable>
rbdock ($Id: //depot/dev/client3/rdock/2013.1/src/exe/rbdock.cxx#4 $)

>  <Rbt.Library>
libRbt.so (2013.1, Build901 2013/11/27)

>  <Rbt.Parameter_File>
/export/apps/rDock/src/rDock_2013.1_src/data/scripts/dock_solv.prm

>  <Rbt.Receptor>
prm/pocket_docking_5.prm

>  <SCORE>
-30.1167

>  <SCORE.INTER>
-26.2317

>  <SCORE.INTER.CONST>
1

>  <SCORE.INTER.POLAR>
-1.67837

>  <SCORE.INTER.ROT>
10

>  <SCORE.INTER.SOLV>
7.3815

>  <SCORE.INTER.VDW>
-24.6204

>  <SCORE.INTER.norm>
-0.874389

>  <SCORE.INTRA>
-4.08317

>  <SCORE.INTRA.DIHEDRAL>
-7.64792

>  <SCORE.INTRA.DIHEDRAL.0>
18.0451

>  <SCORE.INTRA.POLAR>
0.196815

>  <SCORE.INTRA.POLAR.0>
-0.196815

>  <SCORE.INTRA.REPUL>
0

>  <SCORE.INTRA.REPUL.0>
0

>  <SCORE.INTRA.SOLV>
-0.329896

>  <SCORE.INTRA.SOLV.lig_0>
-14.7906

>  <SCORE.INTRA.VDW>
-0.76344

>  <SCORE.INTRA.VDW.0>
-0.411701

>  <SCORE.INTRA.norm>
-0.136106

>  <SCORE.RESTR>
0.198147

>  <SCORE.RESTR.CAVITY>
0.198147

>  <SCORE.RESTR.norm>
0.00660488

>  <SCORE.SYSTEM>
0

>  <SCORE.SYSTEM.CONST>
0

>  <SCORE.SYSTEM.DIHEDRAL>
0

>  <SCORE.SYSTEM.SOLV>
0

>  <SCORE.SYSTEM.norm>
0

>  <SCORE.heavy>
30

>  <SCORE.norm>
-1.00389

>  <RMSD>
4.382

$$$$
1uts_lig
 OpenBabel11021811413D
libRbt.so/2013.1/901 2013/11/27
 30 33  0  0  0  0  0  0  0  0999 V2000
   -1.3855    6.5932   21.2204 N   0  0  0  0  0  0  0  0  0  0  0  0
   -1.2731    5.2474   19.1678 C   0  0  0  0  0  0  0  0  0  0  0  0
   -1.5386    1.8499   15.1375 C   0  0  0  0  0  0  0  0  0  0  0  0
   -0.8337    5.2550   17.7008 C   0  0  0  0  0  0  0  0  0  0  0  0
   -1.0185    3.9462   17.1416 O   0  0  0  0  0  0  0  0  0  0  0  0
   -0.9617    6.6042   19.8021 C   0  0  0  0  0  0  0  0  0  0  0  0
   -2.0007    0.4466   15.2331 N   0  0  0  0  0  0  0  0  0  0  0  0
   -1.1983   -0.2765   16.2549 C   0  0  0  0  0  0  0  0  0  0  0  0
   -0.1829   -1.1913   15.5638 C   0  0  0  0  0  0  0  0  0  0  0  0
    0.3656   -2.1509   16.5482 N   0  0  0  0  0  0  0  0  0  0  0  0
    1.5915   -1.5722   17.1696 C   0  0  0  0  0  0  0  0  0  0  0  0
    0.6867   -3.4340   15.8615 C   0  0  0  0  0  0  0  0  0  0  0  0
    2.1663   -2.5679   18.1901 C   0  0  0  0  0  0  0  0  0  0  0  0
    1.2659   -4.4306   16.8817 C   0  0  0  0  0  0  0  0  0  0  0  0
    2.4888   -3.8510   17.5036 N   0  0  0  0  0  0  0  0  0  0  0  0
   -4.6872    4.5682   16.5205 C   0  0  0  0  0  0  0  0  0  0  0  0
  -10.2588    3.3195   13.6379 N   0  0  0  0  0  0  0  0  0  0  0  0
   -4.9741    3.5859   15.5427 C   0  0  0  0  0  0  0  0  0  0  0  0
   -3.9491    2.7085   15.0987 C   0  0  0  0  0  0  0  0  0  0  0  0
   -2.6364    2.8118   15.6354 C   0  0  0  0  0  0  0  0  0  0  0  0
   -2.3453    3.8137   16.6093 C   0  0  0  0  0  0  0  0  0  0  0  0
   -3.3761    4.6871   17.0523 C   0  0  0  0  0  0  0  0  0  0  0  0
  -10.8981    3.6856   14.8442 C   0  0  0  0  0  0  0  0  0  0  0  0
   -9.9525    3.8988   15.8727 C   0  0  0  0  0  0  0  0  0  0  0  0
   -7.3946    3.7550   15.8458 C   0  0  0  0  0  0  0  0  0  0  0  0
   -6.2703    3.4911   15.0171 C   0  0  0  0  0  0  0  0  0  0  0  0
   -6.4624    3.1377   13.6531 C   0  0  0  0  0  0  0  0  0  0  0  0
   -7.7766    3.0510   13.1191 C   0  0  0  0  0  0  0  0  0  0  0  0
   -8.9050    3.3307   13.9517 C   0  0  0  0  0  0  0  0  0  0  0  0
   -8.7169    3.6799   15.3016 C   0  0  0  0  0  0  0  0  0  0  0  0
  1  6  1  0  0  0  0
  2  4  1  0  0  0  0
  3  7  1  0  0  0  0
  4  5  1  0  0  0  0
  6  2  1  0  0  0  0
  7  8  1  0  0  0  0
  8  9  1  0  0  0  0
  9 10  1  0  0  0  0
 10 11  1  0  0  0  0
 10 12  1  0  0  0  0
 11 13  1  0  0  0  0
 13 15  1  0  0  0  0
 14 12  1  0  0  0  0
 15 14  1  0  0  0  0
 16 18  2  0  0  0  0
 16 22  1  0  0  0  0
 17 23  1  0  0  0  0
 17 29  1  0  0  0  0
 18 19  1  0  0  0  0
 18 26  1  0  0  0  0
 19 20  2  0  0  0  0
 20  3  1  0  0  0  0
 20 21  1  0  0  0  0
 21  5  1  0  0  0  0
 21 22  2  0  0  0  0
 23 24  2  0  0  0  0
 24 30  1  0  0  0  0
 25 26  2  0  0  0  0
 25 30  1  0  0  0  0
 26 27  1  0  0  0  0
 27 28  2  0  0  0  0
 28 29  1  0  0  0  0
 29 30  2  0  0  0  0
M  END
>  <CHROM.1>
168.80511088,174.97738697,-113.24223368,88.32971751,-179.90989358,-104.12306515
-165.65785290,-90.98360209,-34.85639885,-51.99202781,159.27910479,-3.16276400
2.05717279,16.31843405,-0.40439873,-0.43754977,0.43434460

>  <Name>
1uts_lig

>  <RI>
0

>  <Rbt.Current_Directory>
/home/itssahil/PROJECTS/Mol_Feturizer/New_Systems/rnas/1uts

>  <Rbt.Executable>
rbdock ($Id: //depot/dev/client3/rdock/2013.1/src/exe/rbdock.cxx#4 $)

>  <Rbt.Library>
libRbt.so (2013.1, Build901 2013/11/27)

>  <Rbt.Parameter_File>
/export/apps/rDock/src/rDock_2013.1_src/data/scripts/dock_solv.prm

>  <Rbt.Receptor>
prm/pocket_docking_7.prm

>  <SCORE>
-33.4967

>  <SCORE.INTER>
-37.7024

>  <SCORE.INTER.CONST>
1

>  <SCORE.INTER.POLAR>
-2.59357

>  <SCORE.INTER.ROT>
10

>  <SCORE.INTER.SOLV>
9.545

>  <SCORE.INTER.VDW>
-29.938

>  <SCORE.INTER.norm>
-1.25675

>  <SCORE.INTRA>
4.20577

>  <SCORE.INTRA.DIHEDRAL>
-2.28225

>  <SCORE.INTRA.DIHEDRAL.0>
18.0451

>  <SCORE.INTRA.POLAR>
0.196815

>  <SCORE.INTRA.POLAR.0>
-0.196815

>  <SCORE.INTRA.REPUL>
0

>  <SCORE.INTRA.REPUL.0>
0

>  <SCORE.INTRA.SOLV>
-0.67675

>  <SCORE.INTRA.SOLV.lig_0>
-14.7906

>  <SCORE.INTRA.VDW>
5.0161

>  <SCORE.INTRA.VDW.0>
-0.411701

>  <SCORE.INTRA.norm>
0.140192

>  <SCORE.RESTR>
0

>  <SCORE.RESTR.CAVITY>
0

>  <SCORE.RESTR.norm>
0

>  <SCORE.SYSTEM>
0

>  <SCORE.SYSTEM.CONST>
0

>  <SCORE.SYSTEM.DIHEDRAL>
0

>  <SCORE.SYSTEM.SOLV>
0

>  <SCORE.SYSTEM.norm>
0

>  <SCORE.heavy>
30

>  <SCORE.norm>
-1.11656

>  <RMSD>
4.516

$$$$
1uts_lig
 OpenBabel11021811413D
libRbt.so/2013.1/901 2013/11/27
 30 33  0  0  0  0  0  0  0  0999 V2000
    6.0646    1.5758   16.5613 N   0  0  0  0  0  0  0  0  0  0  0  0
    4.0179    2.9320   16.4673 C   0  0  0  0  0  0  0  0  0  0  0  0
   -0.0229    5.8340   17.8613 C   0  0  0  0  0  0  0  0  0  0  0  0
    2.4908    2.8811   16.5714 C   0  0  0  0  0  0  0  0  0  0  0  0
    1.9584    4.2043   16.4121 O   0  0  0  0  0  0  0  0  0  0  0  0
    4.5962    1.5435   16.7462 C   0  0  0  0  0  0  0  0  0  0  0  0
    1.1174    5.2603   18.6115 N   0  0  0  0  0  0  0  0  0  0  0  0
    1.5512    6.2119   19.6684 C   0  0  0  0  0  0  0  0  0  0  0  0
    2.6683    5.5821   20.5056 C   0  0  0  0  0  0  0  0  0  0  0  0
    3.9783    5.8855   19.8868 N   0  0  0  0  0  0  0  0  0  0  0  0
    4.3897    4.7438   19.0201 C   0  0  0  0  0  0  0  0  0  0  0  0
    4.9889    6.1162   20.9575 C   0  0  0  0  0  0  0  0  0  0  0  0
    5.7519    5.0538   18.3786 C   0  0  0  0  0  0  0  0  0  0  0  0
    6.3543    6.4230   20.3163 C   0  0  0  0  0  0  0  0  0  0  0  0
    6.7634    5.2834   19.4490 N   0  0  0  0  0  0  0  0  0  0  0  0
   -1.1577    3.2324   14.5208 C   0  0  0  0  0  0  0  0  0  0  0  0
   -7.5897    3.6736   13.8371 N   0  0  0  0  0  0  0  0  0  0  0  0
   -2.1431    3.9858   15.2026 C   0  0  0  0  0  0  0  0  0  0  0  0
   -1.7686    4.8264   16.2845 C   0  0  0  0  0  0  0  0  0  0  0  0
   -0.4065    4.9162   16.6830 C   0  0  0  0  0  0  0  0  0  0  0  0
    0.5831    4.1432   16.0046 C   0  0  0  0  0  0  0  0  0  0  0  0
    0.2028    3.3058   14.9203 C   0  0  0  0  0  0  0  0  0  0  0  0
   -8.1046    3.7627   15.1504 C   0  0  0  0  0  0  0  0  0  0  0  0
   -7.0597    3.8548   16.0976 C   0  0  0  0  0  0  0  0  0  0  0  0
   -4.5180    3.9126   15.7802 C   0  0  0  0  0  0  0  0  0  0  0  0
   -3.4841    3.8910   14.8050 C   0  0  0  0  0  0  0  0  0  0  0  0
   -3.8127    3.7803   13.4259 C   0  0  0  0  0  0  0  0  0  0  0  0
   -5.1730    3.6936   13.0235 C   0  0  0  0  0  0  0  0  0  0  0  0
   -6.2114    3.7296   14.0060 C   0  0  0  0  0  0  0  0  0  0  0  0
   -5.8882    3.8385   15.3710 C   0  0  0  0  0  0  0  0  0  0  0  0
  1  6  1  0  0  0  0
  2  4  1  0  0  0  0
  3  7  1  0  0  0  0
  4  5  1  0  0  0  0
  6  2  1  0  0  0  0
  7  8  1  0  0  0  0
  8  9  1  0  0  0  0
  9 10  1  0  0  0  0
 10 11  1  0  0  0  0
 10 12  1  0  0  0  0
 11 13  1  0  0  0  0
 13 15  1  0  0  0  0
 14 12  1  0  0  0  0
 15 14  1  0  0  0  0
 16 18  2  0  0  0  0
 16 22  1  0  0  0  0
 17 23  1  0  0  0  0
 17 29  1  0  0  0  0
 18 19  1  0  0  0  0
 18 26  1  0  0  0  0
 19 20  2  0  0  0  0
 20  3  1  0  0  0  0
 20 21  1  0  0  0  0
 21  5  1  0  0  0  0
 21 22  2  0  0  0  0
 23 24  2  0  0  0  0
 24 30  1  0  0  0  0
 25 26  2  0  0  0  0
 25 30  1  0  0  0  0
 26 27  1  0  0  0  0
 27 28  2  0  0  0  0
 28 29  1  0  0  0  0
 29 30  2  0  0  0  0
M  END
>  <CHROM.1>
171.63296685,175.56114700,175.06528570,158.32123989,176.46034484,176.24116323
88.68802246,-95.70622455,142.57942207,146.90722920,130.74796155,0.25542036
4.27393552,16.84409900,-0.34940206,0.18356599,-2.24873550

>  <Name>
1uts_lig

>  <RI>
0

>  <Rbt.Current_Directory>
/home/itssahil/PROJECTS/Mol_Feturizer/New_Systems/rnas/1uts

>  <Rbt.Executable>
rbdock ($Id: //depot/dev/client3/rdock/2013.1/src/exe/rbdock.cxx#4 $)

>  <Rbt.Library>
libRbt.so (2013.1, Build901 2013/11/27)

>  <Rbt.Parameter_File>
/export/apps/rDock/src/rDock_2013.1_src/data/scripts/dock_solv.prm

>  <Rbt.Receptor>
prm/pocket_docking_3.prm

>  <SCORE>
-22.0166

>  <SCORE.INTER>
-18.0543

>  <SCORE.INTER.CONST>
1

>  <SCORE.INTER.POLAR>
0

>  <SCORE.INTER.ROT>
10

>  <SCORE.INTER.SOLV>
8.92172

>  <SCORE.INTER.VDW>
-25.2768

>  <SCORE.INTER.norm>
-0.60181

>  <SCORE.INTRA>
-3.98804

>  <SCORE.INTRA.DIHEDRAL>
-5.40142

>  <SCORE.INTRA.DIHEDRAL.0>
18.0451

>  <SCORE.INTRA.POLAR>
-0.424434

>  <SCORE.INTRA.POLAR.0>
-0.196815

>  <SCORE.INTRA.REPUL>
0

>  <SCORE.INTRA.REPUL.0>
0

>  <SCORE.INTRA.SOLV>
0.187178

>  <SCORE.INTRA.SOLV.lig_0>
-14.7906

>  <SCORE.INTRA.VDW>
0.0621601

>  <SCORE.INTRA.VDW.0>
-0.411701

>  <SCORE.INTRA.norm>
-0.132935

>  <SCORE.RESTR>
0.0257836

>  <SCORE.RESTR.CAVITY>
0.0257836

>  <SCORE.RESTR.norm>
0.000859454

>  <SCORE.SYSTEM>
0

>  <SCORE.SYSTEM.CONST>
0

>  <SCORE.SYSTEM.DIHEDRAL>
0

>  <SCORE.SYSTEM.SOLV>
0

>  <SCORE.SYSTEM.norm>
0

>  <SCORE.heavy>
30

>  <SCORE.norm>
-0.733885

>  <RMSD>
4.535

$$$$
1uts_lig
 OpenBabel11021811413D
libRbt.so/2013.1/901 2013/11/27
 30 33  0  0  0  0  0  0  0  0999 V2000
    5.2148    5.2003   17.8821 N   0  0  0  0  0  0  0  0  0  0  0  0
    3.8185    4.4786   15.9936 C   0  0  0  0  0  0  0  0  0  0  0  0
    0.1503    4.5773   18.2443 C   0  0  0  0  0  0  0  0  0  0  0  0
    2.3295    4.5531   15.6432 C   0  0  0  0  0  0  0  0  0  0  0  0
    1.6826    3.3394   16.0532 O   0  0  0  0  0  0  0  0  0  0  0  0
    3.9860    4.4614   17.5141 C   0  0  0  0  0  0  0  0  0  0  0  0
    0.6707    5.9474   18.0347 N   0  0  0  0  0  0  0  0  0  0  0  0
    0.3724    6.7844   19.2269 C   0  0  0  0  0  0  0  0  0  0  0  0
    1.6626    7.0523   20.0075 C   0  0  0  0  0  0  0  0  0  0  0  0
    2.2416    5.7668   20.4582 N   0  0  0  0  0  0  0  0  0  0  0  0
    1.3779    5.1851   21.5256 C   0  0  0  0  0  0  0  0  0  0  0  0
    3.6202    5.9996   20.9740 C   0  0  0  0  0  0  0  0  0  0  0  0
    1.9783    3.8515   21.9990 C   0  0  0  0  0  0  0  0  0  0  0  0
    4.2211    4.6654   21.4518 C   0  0  0  0  0  0  0  0  0  0  0  0
    3.3567    4.0839   22.5162 N   0  0  0  0  0  0  0  0  0  0  0  0
   -1.7921    3.0970   14.6042 C   0  0  0  0  0  0  0  0  0  0  0  0
   -8.1315    3.8815   14.8592 N   0  0  0  0  0  0  0  0  0  0  0  0
   -2.5665    3.6691   15.6416 C   0  0  0  0  0  0  0  0  0  0  0  0
   -1.9308    4.1464   16.8187 C   0  0  0  0  0  0  0  0  0  0  0  0
   -0.5186    4.0542   16.9571 C   0  0  0  0  0  0  0  0  0  0  0  0
    0.2587    3.4621   15.9167 C   0  0  0  0  0  0  0  0  0  0  0  0
   -0.3828    2.9888   14.7394 C   0  0  0  0  0  0  0  0  0  0  0  0
   -8.1402    3.3958   13.5319 C   0  0  0  0  0  0  0  0  0  0  0  0
   -6.8262    3.1378   13.0797 C   0  0  0  0  0  0  0  0  0  0  0  0
   -4.5716    3.3824   14.2716 C   0  0  0  0  0  0  0  0  0  0  0  0
   -3.9585    3.7552   15.4986 C   0  0  0  0  0  0  0  0  0  0  0  0
   -4.7598    4.2088   16.5824 C   0  0  0  0  0  0  0  0  0  0  0  0
   -6.1715    4.2868   16.4393 C   0  0  0  0  0  0  0  0  0  0  0  0
   -6.7865    3.8979   15.2082 C   0  0  0  0  0  0  0  0  0  0  0  0
   -5.9953    3.4495   14.1347 C   0  0  0  0  0  0  0  0  0  0  0  0
  1  6  1  0  0  0  0
  2  4  1  0  0  0  0
  3  7  1  0  0  0  0
  4  5  1  0  0  0  0
  6  2  1  0  0  0  0
  7  8  1  0  0  0  0
  8  9  1  0  0  0  0
  9 10  1  0  0  0  0
 10 11  1  0  0  0  0
 10 12  1  0  0  0  0
 11 13  1  0  0  0  0
 13 15  1  0  0  0  0
 14 12  1  0  0  0  0
 15 14  1  0  0  0  0
 16 18  2  0  0  0  0
 16 22  1  0  0  0  0
 17 23  1  0  0  0  0
 17 29  1  0  0  0  0
 18 19  1  0  0  0  0
 18 26  1  0  0  0  0
 19 20  2  0  0  0  0
 20  3  1  0  0  0  0
 20 21  1  0  0  0  0
 21  5  1  0  0  0  0
 21 22  2  0  0  0  0
 23 24  2  0  0  0  0
 24 30  1  0  0  0  0
 25 26  2  0  0  0  0
 25 30  1  0  0  0  0
 26 27  1  0  0  0  0
 27 28  2  0  0  0  0
 28 29  1  0  0  0  0
 29 30  2  0  0  0  0
M  END
>  <CHROM.1>
60.53797398,-66.46313411,138.00217162,171.52392292,-145.04434342,107.87323006
-60.59520376,-70.22172066,-5.69374222,-97.36474829,-84.81467709,-0.63746981
4.40330985,17.31646294,-0.53501952,-0.00997851,-1.82294471

>  <Name>
1uts_lig

>  <RI>
0

>  <Rbt.Current_Directory>
/home/itssahil/PROJECTS/Mol_Feturizer/New_Systems/rnas/1uts

>  <Rbt.Executable>
rbdock ($Id: //depot/dev/client3/rdock/2013.1/src/exe/rbdock.cxx#4 $)

>  <Rbt.Library>
libRbt.so (2013.1, Build901 2013/11/27)

>  <Rbt.Parameter_File>
/export/apps/rDock/src/rDock_2013.1_src/data/scripts/dock_solv.prm

>  <Rbt.Receptor>
prm/pocket_docking_3.prm

>  <SCORE>
-25.5994

>  <SCORE.INTER>
-25.5137

>  <SCORE.INTER.CONST>
1

>  <SCORE.INTER.POLAR>
-1.49348

>  <SCORE.INTER.ROT>
10

>  <SCORE.INTER.SOLV>
8.38482

>  <SCORE.INTER.VDW>
-25.0925

>  <SCORE.INTER.norm>
-0.850458

>  <SCORE.INTRA>
-0.307701

>  <SCORE.INTRA.DIHEDRAL>
-2.16041

>  <SCORE.INTRA.DIHEDRAL.0>
18.0451

>  <SCORE.INTRA.POLAR>
0.196815

>  <SCORE.INTRA.POLAR.0>
-0.196815

>  <SCORE.INTRA.REPUL>
0

>  <SCORE.INTRA.REPUL.0>
0

>  <SCORE.INTRA.SOLV>
0.410515

>  <SCORE.INTRA.SOLV.lig_0>
-14.7906

>  <SCORE.INTRA.VDW>
-0.101925

>  <SCORE.INTRA.VDW.0>
-0.411701

>  <SCORE.INTRA.norm>
-0.0102567

>  <SCORE.RESTR>
0.222057

>  <SCORE.RESTR.CAVITY>
0.222057

>  <SCORE.RESTR.norm>
0.0074019

>  <SCORE.SYSTEM>
0

>  <SCORE.SYSTEM.CONST>
0

>  <SCORE.SYSTEM.DIHEDRAL>
0

>  <SCORE.SYSTEM.SOLV>
0

>  <SCORE.SYSTEM.norm>
0

>  <SCORE.heavy>
30

>  <SCORE.norm>
-0.853313

>  <RMSD>
4.612

$$$$
1uts_lig
 OpenBabel11021811413D
libRbt.so/2013.1/901 2013/11/27
 30 33  0  0  0  0  0  0  0  0999 V2000
   -2.0744    5.5845   21.1390 N   0  0  0  0  0  0  0  0  0  0  0  0
   -3.5786    4.8589   19.3367 C   0  0  0  0  0  0  0  0  0  0  0  0
   -0.2522    4.1042   16.0356 C   0  0  0  0  0  0  0  0  0  0  0  0
   -3.7391    4.7631   17.8167 C   0  0  0  0  0  0  0  0  0  0  0  0
   -2.8814    3.7293   17.3115 O   0  0  0  0  0  0  0  0  0  0  0  0
   -2.2288    5.4975   19.6693 C   0  0  0  0  0  0  0  0  0  0  0  0
    0.7128    3.0579   15.6278 N   0  0  0  0  0  0  0  0  0  0  0  0
    0.2342    1.7279   16.0894 C   0  0  0  0  0  0  0  0  0  0  0  0
    1.4030    0.7387   16.1192 C   0  0  0  0  0  0  0  0  0  0  0  0
    0.8962   -0.6129   16.4469 N   0  0  0  0  0  0  0  0  0  0  0  0
    1.8876   -1.3139   17.3126 C   0  0  0  0  0  0  0  0  0  0  0  0
    0.6746   -1.3765   15.1865 C   0  0  0  0  0  0  0  0  0  0  0  0
    1.3664   -2.7197   17.6519 C   0  0  0  0  0  0  0  0  0  0  0  0
    0.1561   -2.7858   15.5251 C   0  0  0  0  0  0  0  0  0  0  0  0
    1.1457   -3.4844   16.3918 N   0  0  0  0  0  0  0  0  0  0  0  0
   -3.9389    3.7535   13.6904 C   0  0  0  0  0  0  0  0  0  0  0  0
   -2.7548    4.4056    7.4344 N   0  0  0  0  0  0  0  0  0  0  0  0
   -2.6976    3.9509   13.0396 C   0  0  0  0  0  0  0  0  0  0  0  0
   -1.5068    4.0641   13.8055 C   0  0  0  0  0  0  0  0  0  0  0  0
   -1.5571    3.9768   15.2239 C   0  0  0  0  0  0  0  0  0  0  0  0
   -2.8120    3.7941   15.8790 C   0  0  0  0  0  0  0  0  0  0  0  0
   -4.0003    3.6783   15.1069 C   0  0  0  0  0  0  0  0  0  0  0  0
   -4.1189    4.7507    7.3009 C   0  0  0  0  0  0  0  0  0  0  0  0
   -4.7575    4.7834    8.5613 C   0  0  0  0  0  0  0  0  0  0  0  0
   -3.8332    4.3621   10.9134 C   0  0  0  0  0  0  0  0  0  0  0  0
   -2.6560    4.0374   11.6409 C   0  0  0  0  0  0  0  0  0  0  0  0
   -1.4354    3.8076   10.9483 C   0  0  0  0  0  0  0  0  0  0  0  0
   -1.3926    3.9047    9.5312 C   0  0  0  0  0  0  0  0  0  0  0  0
   -2.5754    4.2452    8.8031 C   0  0  0  0  0  0  0  0  0  0  0  0
   -3.7840    4.4723    9.4865 C   0  0  0  0  0  0  0  0  0  0  0  0
  1  6  1  0  0  0  0
  2  4  1  0  0  0  0
  3  7  1  0  0  0  0
  4  5  1  0  0  0  0
  6  2  1  0  0  0  0
  7  8  1  0  0  0  0
  8  9  1  0  0  0  0
  9 10  1  0  0  0  0
 10 11  1  0  0  0  0
 10 12  1  0  0  0  0
 11 13  1  0  0  0  0
 13 15  1  0  0  0  0
 14 12  1  0  0  0  0
 15 14  1  0  0  0  0
 16 18  2  0  0  0  0
 16 22  1  0  0  0  0
 17 23  1  0  0  0  0
 17 29  1  0  0  0  0
 18 19  1  0  0  0  0
 18 26  1  0  0  0  0
 19 20  2  0  0  0  0
 20  3  1  0  0  0  0
 20 21  1  0  0  0  0
 21  5  1  0  0  0  0
 21 22  2  0  0  0  0
 23 24  2  0  0  0  0
 24 30  1  0  0  0  0
 25 26  2  0  0  0  0
 25 30  1  0  0  0  0
 26 27  1  0  0  0  0
 27 28  2  0  0  0  0
 28 29  1  0  0  0  0
 29 30  2  0  0  0  0
M  END
>  <CHROM.1>
60.56871517,72.92469786,-70.11939775,-168.61701800,-179.80645705,-160.36211327
-174.33763648,-143.16663510,20.42422377,-58.66183192,121.19561334,-1.58827108
2.71714386,14.48785100,0.88758296,-1.00063067,1.41146261

>  <Name>
1uts_lig

>  <RI>
0

>  <Rbt.Current_Directory>
/home/itssahil/PROJECTS/Mol_Feturizer/New_Systems/rnas/1uts

>  <Rbt.Executable>
rbdock ($Id: //depot/dev/client3/rdock/2013.1/src/exe/rbdock.cxx#4 $)

>  <Rbt.Library>
libRbt.so (2013.1, Build901 2013/11/27)

>  <Rbt.Parameter_File>
/export/apps/rDock/src/rDock_2013.1_src/data/scripts/dock_solv.prm

>  <Rbt.Receptor>
prm/pocket_docking_8.prm

>  <SCORE>
-32.1065

>  <SCORE.INTER>
-29.8235

>  <SCORE.INTER.CONST>
1

>  <SCORE.INTER.POLAR>
-0.8

>  <SCORE.INTER.ROT>
10

>  <SCORE.INTER.SOLV>
9.23694

>  <SCORE.INTER.VDW>
-30.5613

>  <SCORE.INTER.norm>
-0.994116

>  <SCORE.INTRA>
-2.28305

>  <SCORE.INTRA.DIHEDRAL>
-8.36799

>  <SCORE.INTRA.DIHEDRAL.0>
18.0451

>  <SCORE.INTRA.POLAR>
0.196815

>  <SCORE.INTRA.POLAR.0>
-0.196815

>  <SCORE.INTRA.REPUL>
0

>  <SCORE.INTRA.REPUL.0>
0

>  <SCORE.INTRA.SOLV>
-0.596326

>  <SCORE.INTRA.SOLV.lig_0>
-14.7906

>  <SCORE.INTRA.VDW>
1.52993

>  <SCORE.INTRA.VDW.0>
-0.411701

>  <SCORE.INTRA.norm>
-0.0761017

>  <SCORE.RESTR>
0

>  <SCORE.RESTR.CAVITY>
0

>  <SCORE.RESTR.norm>
0

>  <SCORE.SYSTEM>
0

>  <SCORE.SYSTEM.CONST>
0

>  <SCORE.SYSTEM.DIHEDRAL>
0

>  <SCORE.SYSTEM.SOLV>
0

>  <SCORE.SYSTEM.norm>
0

>  <SCORE.heavy>
30

>  <SCORE.norm>
-1.07022

>  <RMSD>
4.628

$$$$
1uts_lig
 OpenBabel11021811413D
libRbt.so/2013.1/901 2013/11/27
 30 33  0  0  0  0  0  0  0  0999 V2000
    6.5993    0.9362   17.3276 N   0  0  0  0  0  0  0  0  0  0  0  0
    6.5094    3.3605   16.9379 C   0  0  0  0  0  0  0  0  0  0  0  0
    2.6882    5.6192   19.0426 C   0  0  0  0  0  0  0  0  0  0  0  0
    5.0049    3.3178   16.6554 C   0  0  0  0  0  0  0  0  0  0  0  0
    4.4383    4.6144   16.8958 O   0  0  0  0  0  0  0  0  0  0  0  0
    7.1485    2.0392   16.5070 C   0  0  0  0  0  0  0  0  0  0  0  0
    4.0105    6.2486   18.8245 N   0  0  0  0  0  0  0  0  0  0  0  0
    4.7621    6.2921   20.1068 C   0  0  0  0  0  0  0  0  0  0  0  0
    5.5663    5.0003   20.2797 C   0  0  0  0  0  0  0  0  0  0  0  0
    6.1576    4.9660   21.6362 N   0  0  0  0  0  0  0  0  0  0  0  0
    7.3098    4.0194   21.6473 C   0  0  0  0  0  0  0  0  0  0  0  0
    5.1210    4.5349   22.6163 C   0  0  0  0  0  0  0  0  0  0  0  0
    7.9242    3.9782   23.0558 C   0  0  0  0  0  0  0  0  0  0  0  0
    5.7360    4.4897   24.0267 C   0  0  0  0  0  0  0  0  0  0  0  0
    6.8882    3.5459   24.0363 N   0  0  0  0  0  0  0  0  0  0  0  0
    1.0753    4.0247   15.2915 C   0  0  0  0  0  0  0  0  0  0  0  0
   -5.3915    4.3090   15.7252 N   0  0  0  0  0  0  0  0  0  0  0  0
    0.1996    4.4812   16.3055 C   0  0  0  0  0  0  0  0  0  0  0  0
    0.7289    4.9962   17.5188 C   0  0  0  0  0  0  0  0  0  0  0  0
    2.1357    5.0577   17.7169 C   0  0  0  0  0  0  0  0  0  0  0  0
    3.0165    4.5818   16.6996 C   0  0  0  0  0  0  0  0  0  0  0  0
    2.4810    4.0702   15.4859 C   0  0  0  0  0  0  0  0  0  0  0  0
   -5.7152    4.5273   17.0837 C   0  0  0  0  0  0  0  0  0  0  0  0
   -4.5459    4.6478   17.8685 C   0  0  0  0  0  0  0  0  0  0  0  0
   -2.0728    4.5635   17.2048 C   0  0  0  0  0  0  0  0  0  0  0  0
   -1.1862    4.4160   16.1036 C   0  0  0  0  0  0  0  0  0  0  0  0
   -1.7073    4.2093   14.7967 C   0  0  0  0  0  0  0  0  0  0  0  0
   -3.1125    4.1527   14.5920 C   0  0  0  0  0  0  0  0  0  0  0  0
   -4.0021    4.3154   15.6997 C   0  0  0  0  0  0  0  0  0  0  0  0
   -3.4884    4.5193   16.9935 C   0  0  0  0  0  0  0  0  0  0  0  0
  1  6  1  0  0  0  0
  2  4  1  0  0  0  0
  3  7  1  0  0  0  0
  4  5  1  0  0  0  0
  6  2  1  0  0  0  0
  7  8  1  0  0  0  0
  8  9  1  0  0  0  0
  9 10  1  0  0  0  0
 10 11  1  0  0  0  0
 10 12  1  0  0  0  0
 11 13  1  0  0  0  0
 13 15  1  0  0  0  0
 14 12  1  0  0  0  0
 15 14  1  0  0  0  0
 16 18  2  0  0  0  0
 16 22  1  0  0  0  0
 17 23  1  0  0  0  0
 17 29  1  0  0  0  0
 18 19  1  0  0  0  0
 18 26  1  0  0  0  0
 19 20  2  0  0  0  0
 20  3  1  0  0  0  0
 20 21  1  0  0  0  0
 21  5  1  0  0  0  0
 21 22  2  0  0  0  0
 23 24  2  0  0  0  0
 24 30  1  0  0  0  0
 25 26  2  0  0  0  0
 25 30  1  0  0  0  0
 26 27  1  0  0  0  0
 27 28  2  0  0  0  0
 28 29  1  0  0  0  0
 29 30  2  0  0  0  0
M  END
>  <CHROM.1>
62.79994212,-172.52246561,-157.56305421,-177.21332224,-63.67482186,88.69930296
-172.09065189,-159.20571599,165.02085164,-150.43663548,127.14430587,2.36210832
4.30193426,18.26141247,-0.44620039,0.16470243,-1.81721645

>  <Name>
1uts_lig

>  <RI>
0

>  <Rbt.Current_Directory>
/home/itssahil/PROJECTS/Mol_Feturizer/New_Systems/rnas/1uts

>  <Rbt.Executable>
rbdock ($Id: //depot/dev/client3/rdock/2013.1/src/exe/rbdock.cxx#4 $)

>  <Rbt.Library>
libRbt.so (2013.1, Build901 2013/11/27)

>  <Rbt.Parameter_File>
/export/apps/rDock/src/rDock_2013.1_src/data/scripts/dock_solv.prm

>  <Rbt.Receptor>
prm/pocket_docking_4.prm

>  <SCORE>
-18.9208

>  <SCORE.INTER>
-14.212

>  <SCORE.INTER.CONST>
1

>  <SCORE.INTER.POLAR>
-0.263923

>  <SCORE.INTER.ROT>
10

>  <SCORE.INTER.SOLV>
6.67351

>  <SCORE.INTER.VDW>
-21.0861

>  <SCORE.INTER.norm>
-0.473733

>  <SCORE.INTRA>
-4.70876

>  <SCORE.INTRA.DIHEDRAL>
-9.68429

>  <SCORE.INTRA.DIHEDRAL.0>
18.0451

>  <SCORE.INTRA.POLAR>
-0.708194

>  <SCORE.INTRA.POLAR.0>
-0.196815

>  <SCORE.INTRA.REPUL>
0

>  <SCORE.INTRA.REPUL.0>
0

>  <SCORE.INTRA.SOLV>
-0.0661731

>  <SCORE.INTRA.SOLV.lig_0>
-14.7906

>  <SCORE.INTRA.VDW>
2.57433

>  <SCORE.INTRA.VDW.0>
-0.411701

>  <SCORE.INTRA.norm>
-0.156959

>  <SCORE.RESTR>
0

>  <SCORE.RESTR.CAVITY>
0

>  <SCORE.RESTR.norm>
0

>  <SCORE.SYSTEM>
0

>  <SCORE.SYSTEM.CONST>
0

>  <SCORE.SYSTEM.DIHEDRAL>
0

>  <SCORE.SYSTEM.SOLV>
0

>  <SCORE.SYSTEM.norm>
0

>  <SCORE.heavy>
30

>  <SCORE.norm>
-0.630692

>  <RMSD>
4.696

$$$$
1uts_lig
 OpenBabel11021811413D
libRbt.so/2013.1/901 2013/11/27
 30 33  0  0  0  0  0  0  0  0999 V2000
    3.3179    7.4704   19.6884 N   0  0  0  0  0  0  0  0  0  0  0  0
    0.9551    7.0416   20.2089 C   0  0  0  0  0  0  0  0  0  0  0  0
    0.2225    3.8944   16.5738 C   0  0  0  0  0  0  0  0  0  0  0  0
   -0.3837    6.6147   19.6004 C   0  0  0  0  0  0  0  0  0  0  0  0
   -0.2848    5.2608   19.1344 O   0  0  0  0  0  0  0  0  0  0  0  0
    1.9800    7.2532   19.0931 C   0  0  0  0  0  0  0  0  0  0  0  0
    1.2220    4.8372   17.1254 N   0  0  0  0  0  0  0  0  0  0  0  0
    2.5909    4.2969   16.9132 C   0  0  0  0  0  0  0  0  0  0  0  0
    3.0846    4.6726   15.5130 C   0  0  0  0  0  0  0  0  0  0  0  0
    4.4805    5.1578   15.5966 N   0  0  0  0  0  0  0  0  0  0  0  0
    4.8340    5.8611   14.3301 C   0  0  0  0  0  0  0  0  0  0  0  0
    5.3930    4.0012   15.8214 C   0  0  0  0  0  0  0  0  0  0  0  0
    6.2847    6.3632   14.4117 C   0  0  0  0  0  0  0  0  0  0  0  0
    6.8464    4.5023   15.8997 C   0  0  0  0  0  0  0  0  0  0  0  0
    7.1979    5.2067   14.6353 N   0  0  0  0  0  0  0  0  0  0  0  0
   -3.8244    4.9823   17.8596 C   0  0  0  0  0  0  0  0  0  0  0  0
   -8.1881    3.3027   13.5002 N   0  0  0  0  0  0  0  0  0  0  0  0
   -3.6216    4.3426   16.6135 C   0  0  0  0  0  0  0  0  0  0  0  0
   -2.3076    3.9932   16.2027 C   0  0  0  0  0  0  0  0  0  0  0  0
   -1.1954    4.2812   17.0406 C   0  0  0  0  0  0  0  0  0  0  0  0
   -1.4005    4.9410   18.2894 C   0  0  0  0  0  0  0  0  0  0  0  0
   -2.7185    5.2856   18.6968 C   0  0  0  0  0  0  0  0  0  0  0  0
   -9.1419    3.4556   14.5320 C   0  0  0  0  0  0  0  0  0  0  0  0
   -8.5120    3.7505   15.7625 C   0  0  0  0  0  0  0  0  0  0  0  0
   -6.0350    4.0603   16.3388 C   0  0  0  0  0  0  0  0  0  0  0  0
   -4.7229    4.0631   15.7921 C   0  0  0  0  0  0  0  0  0  0  0  0
   -4.5301    3.7891   14.4101 C   0  0  0  0  0  0  0  0  0  0  0  0
   -5.6481    3.5151   13.5766 C   0  0  0  0  0  0  0  0  0  0  0  0
   -6.9681    3.5267   14.1267 C   0  0  0  0  0  0  0  0  0  0  0  0
   -7.1606    3.7970   15.4938 C   0  0  0  0  0  0  0  0  0  0  0  0
  1  6  1  0  0  0  0
  2  4  1  0  0  0  0
  3  7  1  0  0  0  0
  4  5  1  0  0  0  0
  6  2  1  0  0  0  0
  7  8  1  0  0  0  0
  8  9  1  0  0  0  0
  9 10  1  0  0  0  0
 10 11  1  0  0  0  0
 10 12  1  0  0  0  0
 11 13  1  0  0  0  0
 13 15  1  0  0  0  0
 14 12  1  0  0  0  0
 15 14  1  0  0  0  0
 16 18  2  0  0  0  0
 16 22  1  0  0  0  0
 17 23  1  0  0  0  0
 17 29  1  0  0  0  0
 18 19  1  0  0  0  0
 18 26  1  0  0  0  0
 19 20  2  0  0  0  0
 20  3  1  0  0  0  0
 20 21  1  0  0  0  0
 21  5  1  0  0  0  0
 21 22  2  0  0  0  0
 23 24  2  0  0  0  0
 24 30  1  0  0  0  0
 25 26  2  0  0  0  0
 25 30  1  0  0  0  0
 26 27  1  0  0  0  0
 27 28  2  0  0  0  0
 28 29  1  0  0  0  0
 29 30  2  0  0  0  0
M  END
>  <CHROM.1>
59.55799574,72.76019795,168.07087592,-166.50583480,-171.76233034,84.77591454
135.08832400,-164.75022518,-17.90579238,149.74855387,133.25779942,-0.67637334
4.84048400,16.46439148,0.14566083,0.10311025,1.18440989

>  <Name>
1uts_lig

>  <RI>
0

>  <Rbt.Current_Directory>
/home/itssahil/PROJECTS/Mol_Feturizer/New_Systems/rnas/1uts

>  <Rbt.Executable>
rbdock ($Id: //depot/dev/client3/rdock/2013.1/src/exe/rbdock.cxx#4 $)

>  <Rbt.Library>
libRbt.so (2013.1, Build901 2013/11/27)

>  <Rbt.Parameter_File>
/export/apps/rDock/src/rDock_2013.1_src/data/scripts/dock_solv.prm

>  <Rbt.Receptor>
prm/pocket_docking_7.prm

>  <SCORE>
-36.0656

>  <SCORE.INTER>
-33.9077

>  <SCORE.INTER.CONST>
1

>  <SCORE.INTER.POLAR>
-1.4613

>  <SCORE.INTER.ROT>
10

>  <SCORE.INTER.SOLV>
9.86127

>  <SCORE.INTER.VDW>
-31.2879

>  <SCORE.INTER.norm>
-1.13026

>  <SCORE.INTRA>
-2.15792

>  <SCORE.INTRA.DIHEDRAL>
-5.75618

>  <SCORE.INTRA.DIHEDRAL.0>
18.0451

>  <SCORE.INTRA.POLAR>
-0.538181

>  <SCORE.INTRA.POLAR.0>
-0.196815

>  <SCORE.INTRA.REPUL>
0

>  <SCORE.INTRA.REPUL.0>
0

>  <SCORE.INTRA.SOLV>
0.0440652

>  <SCORE.INTRA.SOLV.lig_0>
-14.7906

>  <SCORE.INTRA.VDW>
2.52796

>  <SCORE.INTRA.VDW.0>
-0.411701

>  <SCORE.INTRA.norm>
-0.0719306

>  <SCORE.RESTR>
0

>  <SCORE.RESTR.CAVITY>
0

>  <SCORE.RESTR.norm>
0

>  <SCORE.SYSTEM>
0

>  <SCORE.SYSTEM.CONST>
0

>  <SCORE.SYSTEM.DIHEDRAL>
0

>  <SCORE.SYSTEM.SOLV>
0

>  <SCORE.SYSTEM.norm>
0

>  <SCORE.heavy>
30

>  <SCORE.norm>
-1.20219

>  <RMSD>
4.717

$$$$
1uts_lig
 OpenBabel11021811413D
libRbt.so/2013.1/901 2013/11/27
 30 33  0  0  0  0  0  0  0  0999 V2000
    5.1929    4.6928   15.8670 N   0  0  0  0  0  0  0  0  0  0  0  0
    3.0895    3.4673   16.2006 C   0  0  0  0  0  0  0  0  0  0  0  0
   -1.2139    5.3202   18.0841 C   0  0  0  0  0  0  0  0  0  0  0  0
    1.6464    3.3521   15.7012 C   0  0  0  0  0  0  0  0  0  0  0  0
    0.8804    4.4590   16.1990 O   0  0  0  0  0  0  0  0  0  0  0  0
    3.7344    4.7251   15.6156 C   0  0  0  0  0  0  0  0  0  0  0  0
   -0.1971    4.4902   18.7693 N   0  0  0  0  0  0  0  0  0  0  0  0
    0.1431    5.0981   20.0830 C   0  0  0  0  0  0  0  0  0  0  0  0
    1.2059    6.1840   19.8914 C   0  0  0  0  0  0  0  0  0  0  0  0
    2.5274    5.5492   19.6874 N   0  0  0  0  0  0  0  0  0  0  0  0
    2.9732    4.9190   20.9633 C   0  0  0  0  0  0  0  0  0  0  0  0
    3.5084    6.5808   19.2464 C   0  0  0  0  0  0  0  0  0  0  0  0
    4.3474    4.2619   20.7563 C   0  0  0  0  0  0  0  0  0  0  0  0
    4.8858    5.9247   19.0424 C   0  0  0  0  0  0  0  0  0  0  0  0
    5.3292    5.2934   20.3165 N   0  0  0  0  0  0  0  0  0  0  0  0
   -2.1809    3.6516   14.1477 C   0  0  0  0  0  0  0  0  0  0  0  0
   -8.6497    3.4707   13.6915 N   0  0  0  0  0  0  0  0  0  0  0  0
   -3.2172    4.0368   15.0314 C   0  0  0  0  0  0  0  0  0  0  0  0
   -2.8969    4.5764   16.3056 C   0  0  0  0  0  0  0  0  0  0  0  0
   -1.5385    4.7337   16.6953 C   0  0  0  0  0  0  0  0  0  0  0  0
   -0.4952    4.3295   15.8092 C   0  0  0  0  0  0  0  0  0  0  0  0
   -0.8218    3.7928   14.5336 C   0  0  0  0  0  0  0  0  0  0  0  0
   -9.1662    3.5885   15.0019 C   0  0  0  0  0  0  0  0  0  0  0  0
   -8.1245    3.7543   15.9426 C   0  0  0  0  0  0  0  0  0  0  0  0
   -5.5871    3.8958   15.6171 C   0  0  0  0  0  0  0  0  0  0  0  0
   -4.5542    3.8773   14.6408 C   0  0  0  0  0  0  0  0  0  0  0  0
   -4.8799    3.7038   13.2674 C   0  0  0  0  0  0  0  0  0  0  0  0
   -6.2363    3.5515   12.8718 C   0  0  0  0  0  0  0  0  0  0  0  0
   -7.2743    3.5845   13.8549 C   0  0  0  0  0  0  0  0  0  0  0  0
   -6.9540    3.7554   15.2141 C   0  0  0  0  0  0  0  0  0  0  0  0
  1  6  1  0  0  0  0
  2  4  1  0  0  0  0
  3  7  1  0  0  0  0
  4  5  1  0  0  0  0
  6  2  1  0  0  0  0
  7  8  1  0  0  0  0
  8  9  1  0  0  0  0
  9 10  1  0  0  0  0
 10 11  1  0  0  0  0
 10 12  1  0  0  0  0
 11 13  1  0  0  0  0
 13 15  1  0  0  0  0
 14 12  1  0  0  0  0
 15 14  1  0  0  0  0
 16 18  2  0  0  0  0
 16 22  1  0  0  0  0
 17 23  1  0  0  0  0
 17 29  1  0  0  0  0
 18 19  1  0  0  0  0
 18 26  1  0  0  0  0
 19 20  2  0  0  0  0
 20  3  1  0  0  0  0
 20 21  1  0  0  0  0
 21  5  1  0  0  0  0
 21 22  2  0  0  0  0
 23 24  2  0  0  0  0
 24 30  1  0  0  0  0
 25 26  2  0  0  0  0
 25 30  1  0  0  0  0
 26 27  1  0  0  0  0
 27 28  2  0  0  0  0
 28 29  1  0  0  0  0
 29 30  2  0  0  0  0
M  END
>  <CHROM.1>
-176.25117607,-64.16711646,177.80542546,-176.56977910,-168.49932386,-83.99499735
-76.62393037,-69.67741262,162.33428739,132.32236856,143.25855194,-0.90415612
4.44661722,16.73233403,-0.41891665,-0.02961580,-1.81425515

>  <Name>
1uts_lig

>  <RI>
0

>  <Rbt.Current_Directory>
/home/itssahil/PROJECTS/Mol_Feturizer/New_Systems/rnas/1uts

>  <Rbt.Executable>
rbdock ($Id: //depot/dev/client3/rdock/2013.1/src/exe/rbdock.cxx#4 $)

>  <Rbt.Library>
libRbt.so (2013.1, Build901 2013/11/27)

>  <Rbt.Parameter_File>
/export/apps/rDock/src/rDock_2013.1_src/data/scripts/dock_solv.prm

>  <Rbt.Receptor>
prm/pocket_docking_4.prm

>  <SCORE>
-27.4457

>  <SCORE.INTER>
-22.0128

>  <SCORE.INTER.CONST>
1

>  <SCORE.INTER.POLAR>
0

>  <SCORE.INTER.ROT>
10

>  <SCORE.INTER.SOLV>
9.69003

>  <SCORE.INTER.VDW>
-28.1719

>  <SCORE.INTER.norm>
-0.73376

>  <SCORE.INTRA>
-5.43289

>  <SCORE.INTRA.DIHEDRAL>
-12.0562

>  <SCORE.INTRA.DIHEDRAL.0>
18.0451

>  <SCORE.INTRA.POLAR>
-0.410507

>  <SCORE.INTRA.POLAR.0>
-0.196815

>  <SCORE.INTRA.REPUL>
0

>  <SCORE.INTRA.REPUL.0>
0

>  <SCORE.INTRA.SOLV>
0.291411

>  <SCORE.INTRA.SOLV.lig_0>
-14.7906

>  <SCORE.INTRA.VDW>
1.84521

>  <SCORE.INTRA.VDW.0>
-0.411701

>  <SCORE.INTRA.norm>
-0.181096

>  <SCORE.RESTR>
0

>  <SCORE.RESTR.CAVITY>
0

>  <SCORE.RESTR.norm>
0

>  <SCORE.SYSTEM>
0

>  <SCORE.SYSTEM.CONST>
0

>  <SCORE.SYSTEM.DIHEDRAL>
0

>  <SCORE.SYSTEM.SOLV>
0

>  <SCORE.SYSTEM.norm>
0

>  <SCORE.heavy>
30

>  <SCORE.norm>
-0.914856

>  <RMSD>
4.745

$$$$
1uts_lig
 OpenBabel11021811413D
libRbt.so/2013.1/901 2013/11/27
 30 33  0  0  0  0  0  0  0  0999 V2000
    0.8468    6.9617   18.3915 N   0  0  0  0  0  0  0  0  0  0  0  0
   -0.1355    4.8943   19.2850 C   0  0  0  0  0  0  0  0  0  0  0  0
   -2.9390    1.5414   16.5588 C   0  0  0  0  0  0  0  0  0  0  0  0
   -1.2551    4.5451   18.3002 C   0  0  0  0  0  0  0  0  0  0  0  0
   -0.8679    3.4007   17.5254 O   0  0  0  0  0  0  0  0  0  0  0  0
   -0.0447    6.4136   19.4385 C   0  0  0  0  0  0  0  0  0  0  0  0
   -2.2763    0.2453   16.2885 N   0  0  0  0  0  0  0  0  0  0  0  0
   -2.6933   -0.7528   17.3088 C   0  0  0  0  0  0  0  0  0  0  0  0
   -2.5692   -2.1660   16.7318 C   0  0  0  0  0  0  0  0  0  0  0  0
   -1.1381   -2.5197   16.5982 N   0  0  0  0  0  0  0  0  0  0  0  0
   -0.9967   -3.6408   15.6251 C   0  0  0  0  0  0  0  0  0  0  0  0
   -0.6007   -2.9164   17.9304 C   0  0  0  0  0  0  0  0  0  0  0  0
    0.4883   -4.0135   15.4867 C   0  0  0  0  0  0  0  0  0  0  0  0
    0.8853   -3.2934   17.7923 C   0  0  0  0  0  0  0  0  0  0  0  0
    1.0260   -4.4116   16.8185 N   0  0  0  0  0  0  0  0  0  0  0  0
   -1.2506    4.6689   13.9931 C   0  0  0  0  0  0  0  0  0  0  0  0
   -3.6989    4.2618    8.0769 N   0  0  0  0  0  0  0  0  0  0  0  0
   -2.2314    3.7840   13.4848 C   0  0  0  0  0  0  0  0  0  0  0  0
   -2.7740    2.7725   14.3214 C   0  0  0  0  0  0  0  0  0  0  0  0
   -2.3375    2.6478   15.6689 C   0  0  0  0  0  0  0  0  0  0  0  0
   -1.3366    3.5308   16.1747 C   0  0  0  0  0  0  0  0  0  0  0  0
   -0.7992    4.5434   15.3335 C   0  0  0  0  0  0  0  0  0  0  0  0
   -2.3915    4.3598    7.5489 C   0  0  0  0  0  0  0  0  0  0  0  0
   -1.4257    4.3172    8.5799 C   0  0  0  0  0  0  0  0  0  0  0  0
   -1.6991    4.0685   11.1152 C   0  0  0  0  0  0  0  0  0  0  0  0
   -2.6558    3.9121   12.1548 C   0  0  0  0  0  0  0  0  0  0  0  0
   -4.0428    3.8789   11.8426 C   0  0  0  0  0  0  0  0  0  0  0  0
   -4.4712    3.9996   10.4930 C   0  0  0  0  0  0  0  0  0  0  0  0
   -3.5057    4.1429    9.4479 C   0  0  0  0  0  0  0  0  0  0  0  0
   -2.1331    4.1765    9.7549 C   0  0  0  0  0  0  0  0  0  0  0  0
  1  6  1  0  0  0  0
  2  4  1  0  0  0  0
  3  7  1  0  0  0  0
  4  5  1  0  0  0  0
  6  2  1  0  0  0  0
  7  8  1  0  0  0  0
  8  9  1  0  0  0  0
  9 10  1  0  0  0  0
 10 11  1  0  0  0  0
 10 12  1  0  0  0  0
 11 13  1  0  0  0  0
 13 15  1  0  0  0  0
 14 12  1  0  0  0  0
 15 14  1  0  0  0  0
 16 18  2  0  0  0  0
 16 22  1  0  0  0  0
 17 23  1  0  0  0  0
 17 29  1  0  0  0  0
 18 19  1  0  0  0  0
 18 26  1  0  0  0  0
 19 20  2  0  0  0  0
 20  3  1  0  0  0  0
 20 21  1  0  0  0  0
 21  5  1  0  0  0  0
 21 22  2  0  0  0  0
 23 24  2  0  0  0  0
 24 30  1  0  0  0  0
 25 26  2  0  0  0  0
 25 30  1  0  0  0  0
 26 27  1  0  0  0  0
 27 28  2  0  0  0  0
 28 29  1  0  0  0  0
 29 30  2  0  0  0  0
M  END
>  <CHROM.1>
66.32189999,143.99002492,170.16556466,-143.13878910,-87.33682011,154.37144955
71.25700201,-160.18153529,46.42062253,80.88654729,-113.26399489,-1.56689692
2.02138343,14.75793572,-2.55906076,1.29280352,-3.01345360

>  <Name>
1uts_lig

>  <RI>
0

>  <Rbt.Current_Directory>
/home/itssahil/PROJECTS/Mol_Feturizer/New_Systems/rnas/1uts

>  <Rbt.Executable>
rbdock ($Id: //depot/dev/client3/rdock/2013.1/src/exe/rbdock.cxx#4 $)

>  <Rbt.Library>
libRbt.so (2013.1, Build901 2013/11/27)

>  <Rbt.Parameter_File>
/export/apps/rDock/src/rDock_2013.1_src/data/scripts/dock_solv.prm

>  <Rbt.Receptor>
prm/pocket_docking_6.prm

>  <SCORE>
-25.8819

>  <SCORE.INTER>
-27.3672

>  <SCORE.INTER.CONST>
1

>  <SCORE.INTER.POLAR>
-1.36365

>  <SCORE.INTER.ROT>
10

>  <SCORE.INTER.SOLV>
10.2198

>  <SCORE.INTER.VDW>
-27.3726

>  <SCORE.INTER.norm>
-0.912241

>  <SCORE.INTRA>
1.46421

>  <SCORE.INTRA.DIHEDRAL>
3.14718

>  <SCORE.INTRA.DIHEDRAL.0>
18.0451

>  <SCORE.INTRA.POLAR>
0.196815

>  <SCORE.INTRA.POLAR.0>
-0.196815

>  <SCORE.INTRA.REPUL>
0

>  <SCORE.INTRA.REPUL.0>
0

>  <SCORE.INTRA.SOLV>
-0.222396

>  <SCORE.INTRA.SOLV.lig_0>
-14.7906

>  <SCORE.INTRA.VDW>
-0.667353

>  <SCORE.INTRA.VDW.0>
-0.411701

>  <SCORE.INTRA.norm>
0.0488071

>  <SCORE.RESTR>
0.0211241

>  <SCORE.RESTR.CAVITY>
0.0211241

>  <SCORE.RESTR.norm>
0.000704137

>  <SCORE.SYSTEM>
0

>  <SCORE.SYSTEM.CONST>
0

>  <SCORE.SYSTEM.DIHEDRAL>
0

>  <SCORE.SYSTEM.SOLV>
0

>  <SCORE.SYSTEM.norm>
0

>  <SCORE.heavy>
30

>  <SCORE.norm>
-0.862729

>  <RMSD>
4.757

$$$$
1uts_lig
 OpenBabel11021811413D
libRbt.so/2013.1/901 2013/11/27
 30 33  0  0  0  0  0  0  0  0999 V2000
    4.5800   -0.9609   19.0823 N   0  0  0  0  0  0  0  0  0  0  0  0
    2.9911    0.8823   18.7431 C   0  0  0  0  0  0  0  0  0  0  0  0
    1.9063    4.0773   15.5609 C   0  0  0  0  0  0  0  0  0  0  0  0
    1.7204    1.3040   17.9996 C   0  0  0  0  0  0  0  0  0  0  0  0
    1.9770    1.3165   16.5876 O   0  0  0  0  0  0  0  0  0  0  0  0
    3.3876   -0.5324   18.3169 C   0  0  0  0  0  0  0  0  0  0  0  0
    1.7558    4.8002   16.8442 N   0  0  0  0  0  0  0  0  0  0  0  0
    3.0965    5.0654   17.4300 C   0  0  0  0  0  0  0  0  0  0  0  0
    2.9408    5.7530   18.7896 C   0  0  0  0  0  0  0  0  0  0  0  0
    4.2637    6.2232   19.2581 N   0  0  0  0  0  0  0  0  0  0  0  0
    5.0982    5.0470   19.6379 C   0  0  0  0  0  0  0  0  0  0  0  0
    4.0805    7.1299   20.4266 C   0  0  0  0  0  0  0  0  0  0  0  0
    6.4719    5.5318   20.1288 C   0  0  0  0  0  0  0  0  0  0  0  0
    5.4557    7.6130   20.9214 C   0  0  0  0  0  0  0  0  0  0  0  0
    6.2893    6.4377   21.2982 N   0  0  0  0  0  0  0  0  0  0  0  0
   -1.4349    1.3004   14.9780 C   0  0  0  0  0  0  0  0  0  0  0  0
   -6.0321    4.2836   11.5731 N   0  0  0  0  0  0  0  0  0  0  0  0
   -1.5157    2.6245   14.4846 C   0  0  0  0  0  0  0  0  0  0  0  0
   -0.4296    3.5194   14.6773 C   0  0  0  0  0  0  0  0  0  0  0  0
    0.7400    3.0885   15.3616 C   0  0  0  0  0  0  0  0  0  0  0  0
    0.8128    1.7578   15.8727 C   0  0  0  0  0  0  0  0  0  0  0  0
   -0.2762    0.8655   15.6740 C   0  0  0  0  0  0  0  0  0  0  0  0
   -5.3752    4.5022   10.3408 C   0  0  0  0  0  0  0  0  0  0  0  0
   -3.9916    4.2362   10.4517 C   0  0  0  0  0  0  0  0  0  0  0  0
   -2.6005    3.4301   12.4465 C   0  0  0  0  0  0  0  0  0  0  0  0
   -2.6727    3.0426   13.8122 C   0  0  0  0  0  0  0  0  0  0  0  0
   -3.9210    3.0732   14.4926 C   0  0  0  0  0  0  0  0  0  0  0  0
   -5.0947    3.4884   13.8073 C   0  0  0  0  0  0  0  0  0  0  0  0
   -5.0212    3.8643   12.4295 C   0  0  0  0  0  0  0  0  0  0  0  0
   -3.7870    3.8352   11.7548 C   0  0  0  0  0  0  0  0  0  0  0  0
  1  6  1  0  0  0  0
  2  4  1  0  0  0  0
  3  7  1  0  0  0  0
  4  5  1  0  0  0  0
  6  2  1  0  0  0  0
  7  8  1  0  0  0  0
  8  9  1  0  0  0  0
  9 10  1  0  0  0  0
 10 11  1  0  0  0  0
 10 12  1  0  0  0  0
 11 13  1  0  0  0  0
 13 15  1  0  0  0  0
 14 12  1  0  0  0  0
 15 14  1  0  0  0  0
 16 18  2  0  0  0  0
 16 22  1  0  0  0  0
 17 23  1  0  0  0  0
 17 29  1  0  0  0  0
 18 19  1  0  0  0  0
 18 26  1  0  0  0  0
 19 20  2  0  0  0  0
 20  3  1  0  0  0  0
 20 21  1  0  0  0  0
 21  5  1  0  0  0  0
 21 22  2  0  0  0  0
 23 24  2  0  0  0  0
 24 30  1  0  0  0  0
 25 26  2  0  0  0  0
 25 30  1  0  0  0  0
 26 27  1  0  0  0  0
 27 28  2  0  0  0  0
 28 29  1  0  0  0  0
 29 30  2  0  0  0  0
M  END
>  <CHROM.1>
-174.83152842,-61.56415528,145.79756340,-177.84514894,-177.43645976,-177.29381352
-170.29122095,-70.65681520,-116.85848653,91.04648215,102.52020896,0.71512190
3.56403106,16.27643996,-0.12503689,0.68790595,-3.10396775

>  <Name>
1uts_lig

>  <RI>
0

>  <Rbt.Current_Directory>
/home/itssahil/PROJECTS/Mol_Feturizer/New_Systems/rnas/1uts

>  <Rbt.Executable>
rbdock ($Id: //depot/dev/client3/rdock/2013.1/src/exe/rbdock.cxx#4 $)

>  <Rbt.Library>
libRbt.so (2013.1, Build901 2013/11/27)

>  <Rbt.Parameter_File>
/export/apps/rDock/src/rDock_2013.1_src/data/scripts/dock_solv.prm

>  <Rbt.Receptor>
prm/pocket_docking_4.prm

>  <SCORE>
-26.5313

>  <SCORE.INTER>
-23.2078

>  <SCORE.INTER.CONST>
1

>  <SCORE.INTER.POLAR>
-1.76058

>  <SCORE.INTER.ROT>
10

>  <SCORE.INTER.SOLV>
10.4578

>  <SCORE.INTER.VDW>
-23.3559

>  <SCORE.INTER.norm>
-0.773594

>  <SCORE.INTRA>
-3.3235

>  <SCORE.INTRA.DIHEDRAL>
-5.92409

>  <SCORE.INTRA.DIHEDRAL.0>
18.0451

>  <SCORE.INTRA.POLAR>
0.196815

>  <SCORE.INTRA.POLAR.0>
-0.196815

>  <SCORE.INTRA.REPUL>
0

>  <SCORE.INTRA.REPUL.0>
0

>  <SCORE.INTRA.SOLV>
-0.439322

>  <SCORE.INTRA.SOLV.lig_0>
-14.7906

>  <SCORE.INTRA.VDW>
-0.810961

>  <SCORE.INTRA.VDW.0>
-0.411701

>  <SCORE.INTRA.norm>
-0.110783

>  <SCORE.RESTR>
0

>  <SCORE.RESTR.CAVITY>
0

>  <SCORE.RESTR.norm>
0

>  <SCORE.SYSTEM>
0

>  <SCORE.SYSTEM.CONST>
0

>  <SCORE.SYSTEM.DIHEDRAL>
0

>  <SCORE.SYSTEM.SOLV>
0

>  <SCORE.SYSTEM.norm>
0

>  <SCORE.heavy>
30

>  <SCORE.norm>
-0.884377

>  <RMSD>
4.788

$$$$
1uts_lig
 OpenBabel11021811413D
libRbt.so/2013.1/901 2013/11/27
 30 33  0  0  0  0  0  0  0  0999 V2000
    2.7217    5.3523   18.8805 N   0  0  0  0  0  0  0  0  0  0  0  0
    0.8428    4.7890   17.4007 C   0  0  0  0  0  0  0  0  0  0  0  0
   -2.2921    3.0544   13.6842 C   0  0  0  0  0  0  0  0  0  0  0  0
   -0.6540    4.4675   17.3648 C   0  0  0  0  0  0  0  0  0  0  0  0
   -1.1003    4.4299   16.0013 O   0  0  0  0  0  0  0  0  0  0  0  0
    1.2950    4.9582   18.8523 C   0  0  0  0  0  0  0  0  0  0  0  0
   -0.9930    2.5593   14.1934 N   0  0  0  0  0  0  0  0  0  0  0  0
   -1.2050    1.3170   14.9826 C   0  0  0  0  0  0  0  0  0  0  0  0
    0.0720    0.9687   15.7530 C   0  0  0  0  0  0  0  0  0  0  0  0
   -0.0293   -0.4125   16.2755 N   0  0  0  0  0  0  0  0  0  0  0  0
    0.8975   -0.5701   17.4332 C   0  0  0  0  0  0  0  0  0  0  0  0
    0.3203   -1.3767   15.1944 C   0  0  0  0  0  0  0  0  0  0  0  0
    0.7979   -2.0048   17.9762 C   0  0  0  0  0  0  0  0  0  0  0  0
    0.2246   -2.8136   15.7381 C   0  0  0  0  0  0  0  0  0  0  0  0
    1.1487   -2.9696   16.8957 N   0  0  0  0  0  0  0  0  0  0  0  0
   -4.7457    4.6518   16.9465 C   0  0  0  0  0  0  0  0  0  0  0  0
  -10.9407    3.4685   15.4284 N   0  0  0  0  0  0  0  0  0  0  0  0
   -5.3587    4.0133   15.8420 C   0  0  0  0  0  0  0  0  0  0  0  0
   -4.5577    3.4984   14.7880 C   0  0  0  0  0  0  0  0  0  0  0  0
   -3.1419    3.6194   14.8403 C   0  0  0  0  0  0  0  0  0  0  0  0
   -2.5269    4.2781   15.9471 C   0  0  0  0  0  0  0  0  0  0  0  0
   -3.3335    4.7889   17.0007 C   0  0  0  0  0  0  0  0  0  0  0  0
  -10.9920    3.2473   14.0333 C   0  0  0  0  0  0  0  0  0  0  0  0
   -9.6982    3.2950   13.4664 C   0  0  0  0  0  0  0  0  0  0  0  0
   -7.4101    3.6708   14.5559 C   0  0  0  0  0  0  0  0  0  0  0  0
   -6.7553    3.8991   15.7967 C   0  0  0  0  0  0  0  0  0  0  0  0
   -7.5183    4.0043   16.9921 C   0  0  0  0  0  0  0  0  0  0  0  0
   -8.9331    3.8790   16.9462 C   0  0  0  0  0  0  0  0  0  0  0  0
   -9.5878    3.6355   15.6983 C   0  0  0  0  0  0  0  0  0  0  0  0
   -8.8346    3.5317   14.5146 C   0  0  0  0  0  0  0  0  0  0  0  0
  1  6  1  0  0  0  0
  2  4  1  0  0  0  0
  3  7  1  0  0  0  0
  4  5  1  0  0  0  0
  6  2  1  0  0  0  0
  7  8  1  0  0  0  0
  8  9  1  0  0  0  0
  9 10  1  0  0  0  0
 10 11  1  0  0  0  0
 10 12  1  0  0  0  0
 11 13  1  0  0  0  0
 13 15  1  0  0  0  0
 14 12  1  0  0  0  0
 15 14  1  0  0  0  0
 16 18  2  0  0  0  0
 16 22  1  0  0  0  0
 17 23  1  0  0  0  0
 17 29  1  0  0  0  0
 18 19  1  0  0  0  0
 18 26  1  0  0  0  0
 19 20  2  0  0  0  0
 20  3  1  0  0  0  0
 20 21  1  0  0  0  0
 21  5  1  0  0  0  0
 21 22  2  0  0  0  0
 23 24  2  0  0  0  0
 24 30  1  0  0  0  0
 25 26  2  0  0  0  0
 25 30  1  0  0  0  0
 26 27  1  0  0  0  0
 27 28  2  0  0  0  0
 28 29  1  0  0  0  0
 29 30  2  0  0  0  0
M  END
>  <CHROM.1>
-56.00370883,174.78692122,70.97894016,-173.59989990,-176.47380181,-168.01246717
-166.84533425,-157.58148814,159.68874895,-147.24140864,-150.94451816,-3.17652436
2.57686019,16.02270691,-0.23825562,-0.23380791,0.22713781

>  <Name>
1uts_lig

>  <RI>
0

>  <Rbt.Current_Directory>
/home/itssahil/PROJECTS/Mol_Feturizer/New_Systems/rnas/1uts

>  <Rbt.Executable>
rbdock ($Id: //depot/dev/client3/rdock/2013.1/src/exe/rbdock.cxx#4 $)

>  <Rbt.Library>
libRbt.so (2013.1, Build901 2013/11/27)

>  <Rbt.Parameter_File>
/export/apps/rDock/src/rDock_2013.1_src/data/scripts/dock_solv.prm

>  <Rbt.Receptor>
prm/pocket_docking_7.prm

>  <SCORE>
-37.8584

>  <SCORE.INTER>
-32.5617

>  <SCORE.INTER.CONST>
1

>  <SCORE.INTER.POLAR>
-1.33646

>  <SCORE.INTER.ROT>
10

>  <SCORE.INTER.SOLV>
8.3521

>  <SCORE.INTER.VDW>
-30.3036

>  <SCORE.INTER.norm>
-1.08539

>  <SCORE.INTRA>
-5.29671

>  <SCORE.INTRA.DIHEDRAL>
-12.8804

>  <SCORE.INTRA.DIHEDRAL.0>
18.0451

>  <SCORE.INTRA.POLAR>
-0.541275

>  <SCORE.INTRA.POLAR.0>
-0.196815

>  <SCORE.INTRA.REPUL>
0

>  <SCORE.INTRA.REPUL.0>
0

>  <SCORE.INTRA.SOLV>
-0.210125

>  <SCORE.INTRA.SOLV.lig_0>
-14.7906

>  <SCORE.INTRA.VDW>
3.08889

>  <SCORE.INTRA.VDW.0>
-0.411701

>  <SCORE.INTRA.norm>
-0.176557

>  <SCORE.RESTR>
0

>  <SCORE.RESTR.CAVITY>
0

>  <SCORE.RESTR.norm>
0

>  <SCORE.SYSTEM>
0

>  <SCORE.SYSTEM.CONST>
0

>  <SCORE.SYSTEM.DIHEDRAL>
0

>  <SCORE.SYSTEM.SOLV>
0

>  <SCORE.SYSTEM.norm>
0

>  <SCORE.heavy>
30

>  <SCORE.norm>
-1.26195

>  <RMSD>
4.808

$$$$
1uts_lig
 OpenBabel11021811413D
libRbt.so/2013.1/901 2013/11/27
 30 33  0  0  0  0  0  0  0  0999 V2000
    3.9275   -1.8842   19.2286 N   0  0  0  0  0  0  0  0  0  0  0  0
    3.7507   -0.0974   17.5513 C   0  0  0  0  0  0  0  0  0  0  0  0
    1.8274    3.9608   16.4742 C   0  0  0  0  0  0  0  0  0  0  0  0
    2.8148    0.5605   16.5332 C   0  0  0  0  0  0  0  0  0  0  0  0
    1.6805    1.1134   17.2170 O   0  0  0  0  0  0  0  0  0  0  0  0
    3.0422   -1.2856   18.2043 C   0  0  0  0  0  0  0  0  0  0  0  0
    3.1066    3.8251   15.7411 N   0  0  0  0  0  0  0  0  0  0  0  0
    4.2370    3.8001   16.7068 C   0  0  0  0  0  0  0  0  0  0  0  0
    4.3395    5.1519   17.4192 C   0  0  0  0  0  0  0  0  0  0  0  0
    5.5350    5.1594   18.2920 N   0  0  0  0  0  0  0  0  0  0  0  0
    5.3117    6.1033   19.4247 C   0  0  0  0  0  0  0  0  0  0  0  0
    6.7251    5.5739   17.4964 C   0  0  0  0  0  0  0  0  0  0  0  0
    6.5530    6.1166   20.3314 C   0  0  0  0  0  0  0  0  0  0  0  0
    7.9680    5.5912   18.4043 C   0  0  0  0  0  0  0  0  0  0  0  0
    7.7434    6.5323   19.5366 N   0  0  0  0  0  0  0  0  0  0  0  0
   -1.2029    1.2783   14.7900 C   0  0  0  0  0  0  0  0  0  0  0  0
   -4.8374    4.5677   10.6083 N   0  0  0  0  0  0  0  0  0  0  0  0
   -1.1776    2.6444   14.4206 C   0  0  0  0  0  0  0  0  0  0  0  0
   -0.1932    3.5083   14.9705 C   0  0  0  0  0  0  0  0  0  0  0  0
    0.7688    3.0046   15.8884 C   0  0  0  0  0  0  0  0  0  0  0  0
    0.7314    1.6304   16.2720 C   0  0  0  0  0  0  0  0  0  0  0  0
   -0.2543    0.7696   15.7160 C   0  0  0  0  0  0  0  0  0  0  0  0
   -3.9323    4.6573    9.5265 C   0  0  0  0  0  0  0  0  0  0  0  0
   -2.6324    4.2675    9.9217 C   0  0  0  0  0  0  0  0  0  0  0  0
   -1.7514    3.4400   12.1807 C   0  0  0  0  0  0  0  0  0  0  0  0
   -2.1303    3.1341   13.5161 C   0  0  0  0  0  0  0  0  0  0  0  0
   -3.4779    3.3191   13.9307 C   0  0  0  0  0  0  0  0  0  0  0  0
   -4.4447    3.8068   13.0103 C   0  0  0  0  0  0  0  0  0  0  0  0
   -4.0634    4.1004   11.6636 C   0  0  0  0  0  0  0  0  0  0  0  0
   -2.7305    3.9186   11.2519 C   0  0  0  0  0  0  0  0  0  0  0  0
  1  6  1  0  0  0  0
  2  4  1  0  0  0  0
  3  7  1  0  0  0  0
  4  5  1  0  0  0  0
  6  2  1  0  0  0  0
  7  8  1  0  0  0  0
  8  9  1  0  0  0  0
  9 10  1  0  0  0  0
 10 11  1  0  0  0  0
 10 12  1  0  0  0  0
 11 13  1  0  0  0  0
 13 15  1  0  0  0  0
 14 12  1  0  0  0  0
 15 14  1  0  0  0  0
 16 18  2  0  0  0  0
 16 22  1  0  0  0  0
 17 23  1  0  0  0  0
 17 29  1  0  0  0  0
 18 19  1  0  0  0  0
 18 26  1  0  0  0  0
 19 20  2  0  0  0  0
 20  3  1  0  0  0  0
 20 21  1  0  0  0  0
 21  5  1  0  0  0  0
 21 22  2  0  0  0  0
 23 24  2  0  0  0  0
 24 30  1  0  0  0  0
 25 26  2  0  0  0  0
 25 30  1  0  0  0  0
 26 27  1  0  0  0  0
 27 28  2  0  0  0  0
 28 29  1  0  0  0  0
 29 30  2  0  0  0  0
M  END
>  <CHROM.1>
179.87363554,64.61958988,-136.55466382,-174.86726078,-177.61461642,-65.51466115
-175.18371566,-152.86153495,-106.25772071,-98.92711140,-93.27186982,1.44734511
3.26179858,15.69115328,0.16225960,0.62419498,2.79241746

>  <Name>
1uts_lig

>  <RI>
0

>  <Rbt.Current_Directory>
/home/itssahil/PROJECTS/Mol_Feturizer/New_Systems/rnas/1uts

>  <Rbt.Executable>
rbdock ($Id: //depot/dev/client3/rdock/2013.1/src/exe/rbdock.cxx#4 $)

>  <Rbt.Library>
libRbt.so (2013.1, Build901 2013/11/27)

>  <Rbt.Parameter_File>
/export/apps/rDock/src/rDock_2013.1_src/data/scripts/dock_solv.prm

>  <Rbt.Receptor>
prm/pocket_docking_5.prm

>  <SCORE>
-22.1857

>  <SCORE.INTER>
-20.8403

>  <SCORE.INTER.CONST>
1

>  <SCORE.INTER.POLAR>
0

>  <SCORE.INTER.ROT>
10

>  <SCORE.INTER.SOLV>
8.86289

>  <SCORE.INTER.VDW>
-27.1145

>  <SCORE.INTER.norm>
-0.694676

>  <SCORE.INTRA>
-1.34538

>  <SCORE.INTRA.DIHEDRAL>
-3.30513

>  <SCORE.INTRA.DIHEDRAL.0>
18.0451

>  <SCORE.INTRA.POLAR>
0.196815

>  <SCORE.INTRA.POLAR.0>
-0.196815

>  <SCORE.INTRA.REPUL>
0

>  <SCORE.INTRA.REPUL.0>
0

>  <SCORE.INTRA.SOLV>
-0.373678

>  <SCORE.INTRA.SOLV.lig_0>
-14.7906

>  <SCORE.INTRA.VDW>
-0.175154

>  <SCORE.INTRA.VDW.0>
-0.411701

>  <SCORE.INTRA.norm>
-0.0448461

>  <SCORE.RESTR>
0

>  <SCORE.RESTR.CAVITY>
0

>  <SCORE.RESTR.norm>
0

>  <SCORE.SYSTEM>
0

>  <SCORE.SYSTEM.CONST>
0

>  <SCORE.SYSTEM.DIHEDRAL>
0

>  <SCORE.SYSTEM.SOLV>
0

>  <SCORE.SYSTEM.norm>
0

>  <SCORE.heavy>
30

>  <SCORE.norm>
-0.739522

>  <RMSD>
4.870

$$$$
1uts_lig
 OpenBabel11021811413D
libRbt.so/2013.1/901 2013/11/27
 30 33  0  0  0  0  0  0  0  0999 V2000
    2.1870    4.4080   19.7091 N   0  0  0  0  0  0  0  0  0  0  0  0
    0.5168    5.4138   18.2138 C   0  0  0  0  0  0  0  0  0  0  0  0
   -3.2174    3.6992   18.8064 C   0  0  0  0  0  0  0  0  0  0  0  0
   -0.9255    5.2940   17.7132 C   0  0  0  0  0  0  0  0  0  0  0  0
   -1.0420    4.1395   16.8685 O   0  0  0  0  0  0  0  0  0  0  0  0
    0.8528    4.2119   19.0985 C   0  0  0  0  0  0  0  0  0  0  0  0
   -3.2218    2.2838   19.2406 N   0  0  0  0  0  0  0  0  0  0  0  0
   -1.9272    1.6460   18.8825 C   0  0  0  0  0  0  0  0  0  0  0  0
   -2.0067    1.0733   17.4643 C   0  0  0  0  0  0  0  0  0  0  0  0
   -0.7394    0.3803   17.1411 N   0  0  0  0  0  0  0  0  0  0  0  0
   -0.5707    0.3278   15.6604 C   0  0  0  0  0  0  0  0  0  0  0  0
   -0.7700   -0.9966   17.7103 C   0  0  0  0  0  0  0  0  0  0  0  0
    0.7429   -0.3949   15.3207 C   0  0  0  0  0  0  0  0  0  0  0  0
    0.5434   -1.7225   17.3676 C   0  0  0  0  0  0  0  0  0  0  0  0
    0.7123   -1.7725   15.8886 N   0  0  0  0  0  0  0  0  0  0  0  0
   -3.9695    3.9606   14.4958 C   0  0  0  0  0  0  0  0  0  0  0  0
  -10.3453    3.2533   13.5877 N   0  0  0  0  0  0  0  0  0  0  0  0
   -5.0402    3.7302   15.3923 C   0  0  0  0  0  0  0  0  0  0  0  0
   -4.7895    3.6462   16.7879 C   0  0  0  0  0  0  0  0  0  0  0  0
   -3.4667    3.7958   17.2877 C   0  0  0  0  0  0  0  0  0  0  0  0
   -2.3861    4.0117   16.3805 C   0  0  0  0  0  0  0  0  0  0  0  0
   -2.6436    4.0980   14.9849 C   0  0  0  0  0  0  0  0  0  0  0  0
  -10.9754    3.6310   14.7952 C   0  0  0  0  0  0  0  0  0  0  0  0
  -10.0197    3.8998   15.8012 C   0  0  0  0  0  0  0  0  0  0  0  0
   -7.4595    3.8334   15.7332 C   0  0  0  0  0  0  0  0  0  0  0  0
   -6.3415    3.5822   14.8920 C   0  0  0  0  0  0  0  0  0  0  0  0
   -6.5454    3.1877   13.5411 C   0  0  0  0  0  0  0  0  0  0  0  0
   -7.8649    3.0470   13.0326 C   0  0  0  0  0  0  0  0  0  0  0  0
   -8.9875    3.3139   13.8774 C   0  0  0  0  0  0  0  0  0  0  0  0
   -8.7877    3.7037   15.2143 C   0  0  0  0  0  0  0  0  0  0  0  0
  1  6  1  0  0  0  0
  2  4  1  0  0  0  0
  3  7  1  0  0  0  0
  4  5  1  0  0  0  0
  6  2  1  0  0  0  0
  7  8  1  0  0  0  0
  8  9  1  0  0  0  0
  9 10  1  0  0  0  0
 10 11  1  0  0  0  0
 10 12  1  0  0  0  0
 11 13  1  0  0  0  0
 13 15  1  0  0  0  0
 14 12  1  0  0  0  0
 15 14  1  0  0  0  0
 16 18  2  0  0  0  0
 16 22  1  0  0  0  0
 17 23  1  0  0  0  0
 17 29  1  0  0  0  0
 18 19  1  0  0  0  0
 18 26  1  0  0  0  0
 19 20  2  0  0  0  0
 20  3  1  0  0  0  0
 20 21  1  0  0  0  0
 21  5  1  0  0  0  0
 21 22  2  0  0  0  0
 23 24  2  0  0  0  0
 24 30  1  0  0  0  0
 25 26  2  0  0  0  0
 25 30  1  0  0  0  0
 26 27  1  0  0  0  0
 27 28  2  0  0  0  0
 28 29  1  0  0  0  0
 29 30  2  0  0  0  0
M  END
>  <CHROM.1>
-174.41280645,-64.35999446,77.78231053,-179.65392265,-173.36313837,-88.20122122
-177.13340204,-156.59999156,-157.19139125,77.92710109,-63.01547673,-3.41946852
2.69814514,16.45031660,-0.04991225,-0.38764955,0.39745024

>  <Name>
1uts_lig

>  <RI>
0

>  <Rbt.Current_Directory>
/home/itssahil/PROJECTS/Mol_Feturizer/New_Systems/rnas/1uts

>  <Rbt.Executable>
rbdock ($Id: //depot/dev/client3/rdock/2013.1/src/exe/rbdock.cxx#4 $)

>  <Rbt.Library>
libRbt.so (2013.1, Build901 2013/11/27)

>  <Rbt.Parameter_File>
/export/apps/rDock/src/rDock_2013.1_src/data/scripts/dock_solv.prm

>  <Rbt.Receptor>
prm/pocket_docking_7.prm

>  <SCORE>
-29.845

>  <SCORE.INTER>
-26.8907

>  <SCORE.INTER.CONST>
1

>  <SCORE.INTER.POLAR>
-1.67178

>  <SCORE.INTER.ROT>
10

>  <SCORE.INTER.SOLV>
7.7611

>  <SCORE.INTER.VDW>
-25.2082

>  <SCORE.INTER.norm>
-0.896357

>  <SCORE.INTRA>
-2.95427

>  <SCORE.INTRA.DIHEDRAL>
-8.95654

>  <SCORE.INTRA.DIHEDRAL.0>
18.0451

>  <SCORE.INTRA.POLAR>
0.196815

>  <SCORE.INTRA.POLAR.0>
-0.196815

>  <SCORE.INTRA.REPUL>
0

>  <SCORE.INTRA.REPUL.0>
0

>  <SCORE.INTRA.SOLV>
-0.219257

>  <SCORE.INTRA.SOLV.lig_0>
-14.7906

>  <SCORE.INTRA.VDW>
0.964453

>  <SCORE.INTRA.VDW.0>
-0.411701

>  <SCORE.INTRA.norm>
-0.0984758

>  <SCORE.RESTR>
0

>  <SCORE.RESTR.CAVITY>
0

>  <SCORE.RESTR.norm>
0

>  <SCORE.SYSTEM>
0

>  <SCORE.SYSTEM.CONST>
0

>  <SCORE.SYSTEM.DIHEDRAL>
0

>  <SCORE.SYSTEM.SOLV>
0

>  <SCORE.SYSTEM.norm>
0

>  <SCORE.heavy>
30

>  <SCORE.norm>
-0.994833

>  <RMSD>
4.880

$$$$
1uts_lig
 OpenBabel11021811413D
libRbt.so/2013.1/901 2013/11/27
 30 33  0  0  0  0  0  0  0  0999 V2000
   -0.3711    5.3688   17.5346 N   0  0  0  0  0  0  0  0  0  0  0  0
   -2.2696    3.9327   18.1432 C   0  0  0  0  0  0  0  0  0  0  0  0
   -0.8107    1.8286   15.8643 C   0  0  0  0  0  0  0  0  0  0  0  0
   -3.6684    3.4774   17.7174 C   0  0  0  0  0  0  0  0  0  0  0  0
   -3.5528    2.3964   16.7806 O   0  0  0  0  0  0  0  0  0  0  0  0
   -1.7216    4.9278   17.1187 C   0  0  0  0  0  0  0  0  0  0  0  0
   -1.4610    0.6228   16.4257 N   0  0  0  0  0  0  0  0  0  0  0  0
   -0.8290    0.2719   17.7251 C   0  0  0  0  0  0  0  0  0  0  0  0
    0.5323   -0.3849   17.4782 C   0  0  0  0  0  0  0  0  0  0  0  0
    0.3334   -1.7976   17.0839 N   0  0  0  0  0  0  0  0  0  0  0  0
    1.2474   -2.6648   17.8818 C   0  0  0  0  0  0  0  0  0  0  0  0
    0.6129   -1.9483   15.6279 C   0  0  0  0  0  0  0  0  0  0  0  0
    1.0463   -4.1328   17.4722 C   0  0  0  0  0  0  0  0  0  0  0  0
    0.4155   -3.4187   15.2174 C   0  0  0  0  0  0  0  0  0  0  0  0
    1.3269   -4.2844   16.0163 N   0  0  0  0  0  0  0  0  0  0  0  0
   -3.6359    4.1375   13.4350 C   0  0  0  0  0  0  0  0  0  0  0  0
   -0.7474    6.1891    8.0756 N   0  0  0  0  0  0  0  0  0  0  0  0
   -2.3214    3.9020   12.9662 C   0  0  0  0  0  0  0  0  0  0  0  0
   -1.4108    3.1534   13.7586 C   0  0  0  0  0  0  0  0  0  0  0  0
   -1.8163    2.6371   15.0200 C   0  0  0  0  0  0  0  0  0  0  0  0
   -3.1372    2.8897   15.4980 C   0  0  0  0  0  0  0  0  0  0  0  0
   -4.0454    3.6371   14.6991 C   0  0  0  0  0  0  0  0  0  0  0  0
   -1.0015    7.5356    8.4223 C   0  0  0  0  0  0  0  0  0  0  0  0
   -1.5166    7.6306    9.7350 C   0  0  0  0  0  0  0  0  0  0  0  0
   -1.9929    5.8141   11.4779 C   0  0  0  0  0  0  0  0  0  0  0  0
   -1.9282    4.4154   11.7223 C   0  0  0  0  0  0  0  0  0  0  0  0
   -1.4578    3.5391   10.7058 C   0  0  0  0  0  0  0  0  0  0  0  0
   -1.0509    4.0618    9.4485 C   0  0  0  0  0  0  0  0  0  0  0  0
   -1.1040    5.4709    9.2105 C   0  0  0  0  0  0  0  0  0  0  0  0
   -1.5697    6.3392   10.2147 C   0  0  0  0  0  0  0  0  0  0  0  0
  1  6  1  0  0  0  0
  2  4  1  0  0  0  0
  3  7  1  0  0  0  0
  4  5  1  0  0  0  0
  6  2  1  0  0  0  0
  7  8  1  0  0  0  0
  8  9  1  0  0  0  0
  9 10  1  0  0  0  0
 10 11  1  0  0  0  0
 10 12  1  0  0  0  0
 11 13  1  0  0  0  0
 13 15  1  0  0  0  0
 14 12  1  0  0  0  0
 15 14  1  0  0  0  0
 16 18  2  0  0  0  0
 16 22  1  0  0  0  0
 17 23  1  0  0  0  0
 17 29  1  0  0  0  0
 18 19  1  0  0  0  0
 18 26  1  0  0  0  0
 19 20  2  0  0  0  0
 20  3  1  0  0  0  0
 20 21  1  0  0  0  0
 21  5  1  0  0  0  0
 21 22  2  0  0  0  0
 23 24  2  0  0  0  0
 24 30  1  0  0  0  0
 25 26  2  0  0  0  0
 25 30  1  0  0  0  0
 26 27  1  0  0  0  0
 27 28  2  0  0  0  0
 28 29  1  0  0  0  0
 29 30  2  0  0  0  0
M  END
>  <CHROM.1>
175.25369094,84.38545221,-149.70089481,-74.69298587,179.85044073,-75.87871324
-78.48201137,-132.21024807,58.29542477,-135.88616986,108.05063885,-1.21491553
2.39170127,14.43509385,1.95362721,1.09016255,-1.05959728

>  <Name>
1uts_lig

>  <RI>
0

>  <Rbt.Current_Directory>
/home/itssahil/PROJECTS/Mol_Feturizer/New_Systems/rnas/1uts

>  <Rbt.Executable>
rbdock ($Id: //depot/dev/client3/rdock/2013.1/src/exe/rbdock.cxx#4 $)

>  <Rbt.Library>
libRbt.so (2013.1, Build901 2013/11/27)

>  <Rbt.Parameter_File>
/export/apps/rDock/src/rDock_2013.1_src/data/scripts/dock_solv.prm

>  <Rbt.Receptor>
prm/pocket_docking_6.prm

>  <SCORE>
-42.0962

>  <SCORE.INTER>
-40.2725

>  <SCORE.INTER.CONST>
1

>  <SCORE.INTER.POLAR>
-2.57223

>  <SCORE.INTER.ROT>
10

>  <SCORE.INTER.SOLV>
11.1187

>  <SCORE.INTER.VDW>
-32.2472

>  <SCORE.INTER.norm>
-1.34242

>  <SCORE.INTRA>
-1.90865

>  <SCORE.INTRA.DIHEDRAL>
0.331648

>  <SCORE.INTRA.DIHEDRAL.0>
18.0451

>  <SCORE.INTRA.POLAR>
-0.51543

>  <SCORE.INTRA.POLAR.0>
-0.196815

>  <SCORE.INTRA.REPUL>
0

>  <SCORE.INTRA.REPUL.0>
0

>  <SCORE.INTRA.SOLV>
0.143581

>  <SCORE.INTRA.SOLV.lig_0>
-14.7906

>  <SCORE.INTRA.VDW>
-0.393803

>  <SCORE.INTRA.VDW.0>
-0.411701

>  <SCORE.INTRA.norm>
-0.0636217

>  <SCORE.RESTR>
0.0849467

>  <SCORE.RESTR.CAVITY>
0.0849467

>  <SCORE.RESTR.norm>
0.00283156

>  <SCORE.SYSTEM>
0

>  <SCORE.SYSTEM.CONST>
0

>  <SCORE.SYSTEM.DIHEDRAL>
0

>  <SCORE.SYSTEM.SOLV>
0

>  <SCORE.SYSTEM.norm>
0

>  <SCORE.heavy>
30

>  <SCORE.norm>
-1.40321

>  <RMSD>
5.100

$$$$
1uts_lig
 OpenBabel11021811413D
libRbt.so/2013.1/901 2013/11/27
 30 33  0  0  0  0  0  0  0  0999 V2000
    1.2070   -0.9114   15.6252 N   0  0  0  0  0  0  0  0  0  0  0  0
   -0.6198   -0.0170   17.0036 C   0  0  0  0  0  0  0  0  0  0  0  0
    0.4320    3.2242   15.0688 C   0  0  0  0  0  0  0  0  0  0  0  0
   -1.3035    0.6308   15.7961 C   0  0  0  0  0  0  0  0  0  0  0  0
   -1.9214    1.8609   16.2020 O   0  0  0  0  0  0  0  0  0  0  0  0
    0.1176   -1.2807   16.5570 C   0  0  0  0  0  0  0  0  0  0  0  0
    0.9696    4.5231   15.5336 N   0  0  0  0  0  0  0  0  0  0  0  0
    2.4515    4.4466   15.6290 C   0  0  0  0  0  0  0  0  0  0  0  0
    2.8612    4.1121   17.0663 C   0  0  0  0  0  0  0  0  0  0  0  0
    4.3360    4.0168   17.1485 N   0  0  0  0  0  0  0  0  0  0  0  0
    4.7697    2.6713   16.6737 C   0  0  0  0  0  0  0  0  0  0  0  0
    4.7674    4.2347   18.5583 C   0  0  0  0  0  0  0  0  0  0  0  0
    6.3010    2.5672   16.7613 C   0  0  0  0  0  0  0  0  0  0  0  0
    6.3004    4.1270   18.6479 C   0  0  0  0  0  0  0  0  0  0  0  0
    6.7329    2.7839   18.1712 N   0  0  0  0  0  0  0  0  0  0  0  0
   -3.5877    3.7722   13.4088 C   0  0  0  0  0  0  0  0  0  0  0  0
   -3.4870    7.7606    8.4047 N   0  0  0  0  0  0  0  0  0  0  0  0
   -2.4858    4.4596   12.8463 C   0  0  0  0  0  0  0  0  0  0  0  0
   -1.1859    4.2778   13.3894 C   0  0  0  0  0  0  0  0  0  0  0  0
   -0.9875    3.4052   14.4943 C   0  0  0  0  0  0  0  0  0  0  0  0
   -2.1026    2.7255   15.0703 C   0  0  0  0  0  0  0  0  0  0  0  0
   -3.4010    2.9090   14.5205 C   0  0  0  0  0  0  0  0  0  0  0  0
   -4.3432    6.8719    7.7156 C   0  0  0  0  0  0  0  0  0  0  0  0
   -4.4932    5.6605    8.4282 C   0  0  0  0  0  0  0  0  0  0  0  0
   -3.5143    4.9120   10.6744 C   0  0  0  0  0  0  0  0  0  0  0  0
   -2.6894    5.3195   11.7579 C   0  0  0  0  0  0  0  0  0  0  0  0
   -2.0771    6.6029   11.7389 C   0  0  0  0  0  0  0  0  0  0  0  0
   -2.2918    7.4772   10.6394 C   0  0  0  0  0  0  0  0  0  0  0  0
   -3.1334    7.0697    9.5574 C   0  0  0  0  0  0  0  0  0  0  0  0
   -3.7395    5.8002    9.5741 C   0  0  0  0  0  0  0  0  0  0  0  0
  1  6  1  0  0  0  0
  2  4  1  0  0  0  0
  3  7  1  0  0  0  0
  4  5  1  0  0  0  0
  6  2  1  0  0  0  0
  7  8  1  0  0  0  0
  8  9  1  0  0  0  0
  9 10  1  0  0  0  0
 10 11  1  0  0  0  0
 10 12  1  0  0  0  0
 11 13  1  0  0  0  0
 13 15  1  0  0  0  0
 14 12  1  0  0  0  0
 15 14  1  0  0  0  0
 16 18  2  0  0  0  0
 16 22  1  0  0  0  0
 17 23  1  0  0  0  0
 17 29  1  0  0  0  0
 18 19  1  0  0  0  0
 18 26  1  0  0  0  0
 19 20  2  0  0  0  0
 20  3  1  0  0  0  0
 20 21  1  0  0  0  0
 21  5  1  0  0  0  0
 21 22  2  0  0  0  0
 23 24  2  0  0  0  0
 24 30  1  0  0  0  0
 25 26  2  0  0  0  0
 25 30  1  0  0  0  0
 26 27  1  0  0  0  0
 27 28  2  0  0  0  0
 28 29  1  0  0  0  0
 29 30  2  0  0  0  0
M  END
>  <CHROM.1>
-65.02613332,-176.30910773,-160.13195322,157.52355066,64.37396371,-95.58335943
179.11863227,-81.35092844,-44.74756855,59.52272275,-74.33122147,-0.03094776
3.77968014,14.23848552,0.69810661,0.46089053,2.49839932

>  <Name>
1uts_lig

>  <RI>
0

>  <Rbt.Current_Directory>
/home/itssahil/PROJECTS/Mol_Feturizer/New_Systems/rnas/1uts

>  <Rbt.Executable>
rbdock ($Id: //depot/dev/client3/rdock/2013.1/src/exe/rbdock.cxx#4 $)

>  <Rbt.Library>
libRbt.so (2013.1, Build901 2013/11/27)

>  <Rbt.Parameter_File>
/export/apps/rDock/src/rDock_2013.1_src/data/scripts/dock_solv.prm

>  <Rbt.Receptor>
prm/pocket_docking_7.prm

>  <SCORE>
-32.6598

>  <SCORE.INTER>
-31.8143

>  <SCORE.INTER.CONST>
1

>  <SCORE.INTER.POLAR>
-2.25781

>  <SCORE.INTER.ROT>
10

>  <SCORE.INTER.SOLV>
8.60344

>  <SCORE.INTER.VDW>
-26.818

>  <SCORE.INTER.norm>
-1.06048

>  <SCORE.INTRA>
-0.845528

>  <SCORE.INTRA.DIHEDRAL>
-3.8413

>  <SCORE.INTRA.DIHEDRAL.0>
18.0451

>  <SCORE.INTRA.POLAR>
0.196815

>  <SCORE.INTRA.POLAR.0>
-0.196815

>  <SCORE.INTRA.REPUL>
0

>  <SCORE.INTRA.REPUL.0>
0

>  <SCORE.INTRA.SOLV>
-0.48004

>  <SCORE.INTRA.SOLV.lig_0>
-14.7906

>  <SCORE.INTRA.VDW>
0.64597

>  <SCORE.INTRA.VDW.0>
-0.411701

>  <SCORE.INTRA.norm>
-0.0281843

>  <SCORE.RESTR>
0

>  <SCORE.RESTR.CAVITY>
0

>  <SCORE.RESTR.norm>
0

>  <SCORE.SYSTEM>
0

>  <SCORE.SYSTEM.CONST>
0

>  <SCORE.SYSTEM.DIHEDRAL>
0

>  <SCORE.SYSTEM.SOLV>
0

>  <SCORE.SYSTEM.norm>
0

>  <SCORE.heavy>
30

>  <SCORE.norm>
-1.08866

>  <RMSD>
5.111

$$$$
1uts_lig
 OpenBabel11021811413D
libRbt.so/2013.1/901 2013/11/27
 30 33  0  0  0  0  0  0  0  0999 V2000
    5.5654   -0.0369   19.2019 N   0  0  0  0  0  0  0  0  0  0  0  0
    4.2808   -0.0950   17.1081 C   0  0  0  0  0  0  0  0  0  0  0  0
    2.2689    4.4112   15.6283 C   0  0  0  0  0  0  0  0  0  0  0  0
    2.9288    0.2435   16.4735 C   0  0  0  0  0  0  0  0  0  0  0  0
    2.6931    1.6552   16.5799 O   0  0  0  0  0  0  0  0  0  0  0  0
    4.2303    0.2008   18.6081 C   0  0  0  0  0  0  0  0  0  0  0  0
    2.7410    4.5327   17.0263 N   0  0  0  0  0  0  0  0  0  0  0  0
    1.7099    5.2241   17.8448 C   0  0  0  0  0  0  0  0  0  0  0  0
    0.5698    4.2542   18.1686 C   0  0  0  0  0  0  0  0  0  0  0  0
   -0.6940    5.0108   18.3145 N   0  0  0  0  0  0  0  0  0  0  0  0
   -0.7968    5.5339   19.7072 C   0  0  0  0  0  0  0  0  0  0  0  0
   -1.8447    4.1142   18.0094 C   0  0  0  0  0  0  0  0  0  0  0  0
   -2.1103    6.3171   19.8636 C   0  0  0  0  0  0  0  0  0  0  0  0
   -3.1607    4.8965   18.1693 C   0  0  0  0  0  0  0  0  0  0  0  0
   -3.2616    5.4206   19.5598 N   0  0  0  0  0  0  0  0  0  0  0  0
   -0.8454    1.3429   15.3096 C   0  0  0  0  0  0  0  0  0  0  0  0
   -6.2162    3.8915   12.8846 N   0  0  0  0  0  0  0  0  0  0  0  0
   -1.0954    2.6603   14.8567 C   0  0  0  0  0  0  0  0  0  0  0  0
   -0.0820    3.6499   14.9633 C   0  0  0  0  0  0  0  0  0  0  0  0
    1.1840    3.3207   15.5207 C   0  0  0  0  0  0  0  0  0  0  0  0
    1.4284    1.9957   15.9918 C   0  0  0  0  0  0  0  0  0  0  0  0
    0.4113    1.0085   15.8796 C   0  0  0  0  0  0  0  0  0  0  0  0
   -6.9506    3.4106   13.9924 C   0  0  0  0  0  0  0  0  0  0  0  0
   -6.0888    2.8698   14.9735 C   0  0  0  0  0  0  0  0  0  0  0  0
   -3.5343    2.6825   15.0325 C   0  0  0  0  0  0  0  0  0  0  0  0
   -2.3466    2.9779   14.3096 C   0  0  0  0  0  0  0  0  0  0  0  0
   -2.4295    3.6018   13.0344 C   0  0  0  0  0  0  0  0  0  0  0  0
   -3.6980    3.9316   12.4850 C   0  0  0  0  0  0  0  0  0  0  0  0
   -4.8904    3.6458   13.2209 C   0  0  0  0  0  0  0  0  0  0  0  0
   -4.8104    3.0280   14.4823 C   0  0  0  0  0  0  0  0  0  0  0  0
  1  6  1  0  0  0  0
  2  4  1  0  0  0  0
  3  7  1  0  0  0  0
  4  5  1  0  0  0  0
  6  2  1  0  0  0  0
  7  8  1  0  0  0  0
  8  9  1  0  0  0  0
  9 10  1  0  0  0  0
 10 11  1  0  0  0  0
 10 12  1  0  0  0  0
 11 13  1  0  0  0  0
 13 15  1  0  0  0  0
 14 12  1  0  0  0  0
 15 14  1  0  0  0  0
 16 18  2  0  0  0  0
 16 22  1  0  0  0  0
 17 23  1  0  0  0  0
 17 29  1  0  0  0  0
 18 19  1  0  0  0  0
 18 26  1  0  0  0  0
 19 20  2  0  0  0  0
 20  3  1  0  0  0  0
 20 21  1  0  0  0  0
 21  5  1  0  0  0  0
 21 22  2  0  0  0  0
 23 24  2  0  0  0  0
 24 30  1  0  0  0  0
 25 26  2  0  0  0  0
 25 30  1  0  0  0  0
 26 27  1  0  0  0  0
 27 28  2  0  0  0  0
 28 29  1  0  0  0  0
 29 30  2  0  0  0  0
M  END
>  <CHROM.1>
-177.80827175,64.74600706,-74.36378789,-179.93973580,-176.06402577,76.72144138
-150.37194473,-84.63822886,52.81261938,124.63309229,-156.36411778,-0.70198900
3.19823233,16.35961880,-0.14738285,0.41400881,-2.19451760

>  <Name>
1uts_lig

>  <RI>
0

>  <Rbt.Current_Directory>
/home/itssahil/PROJECTS/Mol_Feturizer/New_Systems/rnas/1uts

>  <Rbt.Executable>
rbdock ($Id: //depot/dev/client3/rdock/2013.1/src/exe/rbdock.cxx#4 $)

>  <Rbt.Library>
libRbt.so (2013.1, Build901 2013/11/27)

>  <Rbt.Parameter_File>
/export/apps/rDock/src/rDock_2013.1_src/data/scripts/dock_solv.prm

>  <Rbt.Receptor>
prm/pocket_docking_4.prm

>  <SCORE>
-26.4287

>  <SCORE.INTER>
-22.6581

>  <SCORE.INTER.CONST>
1

>  <SCORE.INTER.POLAR>
-0.324598

>  <SCORE.INTER.ROT>
10

>  <SCORE.INTER.SOLV>
9.97331

>  <SCORE.INTER.VDW>
-27.6145

>  <SCORE.INTER.norm>
-0.755272

>  <SCORE.INTRA>
-3.77053

>  <SCORE.INTRA.DIHEDRAL>
-8.15717

>  <SCORE.INTRA.DIHEDRAL.0>
18.0451

>  <SCORE.INTRA.POLAR>
-0.444733

>  <SCORE.INTRA.POLAR.0>
-0.196815

>  <SCORE.INTRA.REPUL>
0

>  <SCORE.INTRA.REPUL.0>
0

>  <SCORE.INTRA.SOLV>
-0.109593

>  <SCORE.INTRA.SOLV.lig_0>
-14.7906

>  <SCORE.INTRA.VDW>
1.87495

>  <SCORE.INTRA.VDW.0>
-0.411701

>  <SCORE.INTRA.norm>
-0.125684

>  <SCORE.RESTR>
0

>  <SCORE.RESTR.CAVITY>
0

>  <SCORE.RESTR.norm>
0

>  <SCORE.SYSTEM>
0

>  <SCORE.SYSTEM.CONST>
0

>  <SCORE.SYSTEM.DIHEDRAL>
0

>  <SCORE.SYSTEM.SOLV>
0

>  <SCORE.SYSTEM.norm>
0

>  <SCORE.heavy>
30

>  <SCORE.norm>
-0.880956

>  <RMSD>
5.115

$$$$
1uts_lig
 OpenBabel11021811413D
libRbt.so/2013.1/901 2013/11/27
 30 33  0  0  0  0  0  0  0  0999 V2000
    7.1386    1.0258   15.3781 N   0  0  0  0  0  0  0  0  0  0  0  0
    6.9227    1.3441   17.8048 C   0  0  0  0  0  0  0  0  0  0  0  0
    4.5044    5.3488   15.6898 C   0  0  0  0  0  0  0  0  0  0  0  0
    5.4746    1.8308   17.6991 C   0  0  0  0  0  0  0  0  0  0  0  0
    5.3311    2.6478   16.5279 O   0  0  0  0  0  0  0  0  0  0  0  0
    7.2074    0.3388   16.6875 C   0  0  0  0  0  0  0  0  0  0  0  0
    5.3355    5.4846   16.9075 N   0  0  0  0  0  0  0  0  0  0  0  0
    4.4587    5.5718   18.1052 C   0  0  0  0  0  0  0  0  0  0  0  0
    5.3117    5.8059   19.3555 C   0  0  0  0  0  0  0  0  0  0  0  0
    4.4298    6.1232   20.5011 N   0  0  0  0  0  0  0  0  0  0  0  0
    5.2448    6.7151   21.6008 C   0  0  0  0  0  0  0  0  0  0  0  0
    3.7558    4.8778   20.9657 C   0  0  0  0  0  0  0  0  0  0  0  0
    4.3327    7.0424   22.7941 C   0  0  0  0  0  0  0  0  0  0  0  0
    2.8450    5.2037   22.1630 C   0  0  0  0  0  0  0  0  0  0  0  0
    3.6593    5.7970   23.2599 N   0  0  0  0  0  0  0  0  0  0  0  0
    1.6223    2.0769   16.1403 C   0  0  0  0  0  0  0  0  0  0  0  0
   -4.2623    4.1584   14.5867 N   0  0  0  0  0  0  0  0  0  0  0  0
    1.1818    3.3649   15.7529 C   0  0  0  0  0  0  0  0  0  0  0  0
    2.1209    4.4208   15.6092 C   0  0  0  0  0  0  0  0  0  0  0  0
    3.5027    4.1874   15.8502 C   0  0  0  0  0  0  0  0  0  0  0  0
    3.9426    2.8919   16.2566 C   0  0  0  0  0  0  0  0  0  0  0  0
    2.9984    1.8380   16.3958 C   0  0  0  0  0  0  0  0  0  0  0  0
   -4.1864    3.8841   13.2022 C   0  0  0  0  0  0  0  0  0  0  0  0
   -2.8586    3.5898   12.8176 C   0  0  0  0  0  0  0  0  0  0  0  0
   -0.7080    3.4599   14.2039 C   0  0  0  0  0  0  0  0  0  0  0  0
   -0.1824    3.5878   15.5184 C   0  0  0  0  0  0  0  0  0  0  0  0
   -1.0435    3.9353   16.5954 C   0  0  0  0  0  0  0  0  0  0  0  0
   -2.4278    4.1519   16.3579 C   0  0  0  0  0  0  0  0  0  0  0  0
   -2.9561    4.0088   15.0368 C   0  0  0  0  0  0  0  0  0  0  0  0
   -2.1056    3.6657   13.9699 C   0  0  0  0  0  0  0  0  0  0  0  0
  1  6  1  0  0  0  0
  2  4  1  0  0  0  0
  3  7  1  0  0  0  0
  4  5  1  0  0  0  0
  6  2  1  0  0  0  0
  7  8  1  0  0  0  0
  8  9  1  0  0  0  0
  9 10  1  0  0  0  0
 10 11  1  0  0  0  0
 10 12  1  0  0  0  0
 11 13  1  0  0  0  0
 13 15  1  0  0  0  0
 14 12  1  0  0  0  0
 15 14  1  0  0  0  0
 16 18  2  0  0  0  0
 16 22  1  0  0  0  0
 17 23  1  0  0  0  0
 17 29  1  0  0  0  0
 18 19  1  0  0  0  0
 18 26  1  0  0  0  0
 19 20  2  0  0  0  0
 20  3  1  0  0  0  0
 20 21  1  0  0  0  0
 21  5  1  0  0  0  0
 21 22  2  0  0  0  0
 23 24  2  0  0  0  0
 24 30  1  0  0  0  0
 25 26  2  0  0  0  0
 25 30  1  0  0  0  0
 26 27  1  0  0  0  0
 27 28  2  0  0  0  0
 28 29  1  0  0  0  0
 29 30  2  0  0  0  0
M  END
>  <CHROM.1>
-143.57732247,-69.30020457,-52.27921689,168.35636304,65.84842841,-176.25201850
170.32253971,-164.36160361,-93.00913032,127.65982403,138.31625308,2.52111093
3.96294818,17.22976260,-0.56215816,0.27639708,-2.13435838

>  <Name>
1uts_lig

>  <RI>
0

>  <Rbt.Current_Directory>
/home/itssahil/PROJECTS/Mol_Feturizer/New_Systems/rnas/1uts

>  <Rbt.Executable>
rbdock ($Id: //depot/dev/client3/rdock/2013.1/src/exe/rbdock.cxx#4 $)

>  <Rbt.Library>
libRbt.so (2013.1, Build901 2013/11/27)

>  <Rbt.Parameter_File>
/export/apps/rDock/src/rDock_2013.1_src/data/scripts/dock_solv.prm

>  <Rbt.Receptor>
prm/pocket_docking_5.prm

>  <SCORE>
-24.456

>  <SCORE.INTER>
-19.8818

>  <SCORE.INTER.CONST>
1

>  <SCORE.INTER.POLAR>
-1.00947

>  <SCORE.INTER.ROT>
10

>  <SCORE.INTER.SOLV>
8.39104

>  <SCORE.INTER.VDW>
-22.9533

>  <SCORE.INTER.norm>
-0.662728

>  <SCORE.INTRA>
-4.57412

>  <SCORE.INTRA.DIHEDRAL>
-5.88072

>  <SCORE.INTRA.DIHEDRAL.0>
18.0451

>  <SCORE.INTRA.POLAR>
-1.05224

>  <SCORE.INTRA.POLAR.0>
-0.196815

>  <SCORE.INTRA.REPUL>
0

>  <SCORE.INTRA.REPUL.0>
0

>  <SCORE.INTRA.SOLV>
0.256918

>  <SCORE.INTRA.SOLV.lig_0>
-14.7906

>  <SCORE.INTRA.VDW>
1.8154

>  <SCORE.INTRA.VDW.0>
-0.411701

>  <SCORE.INTRA.norm>
-0.152471

>  <SCORE.RESTR>
0

>  <SCORE.RESTR.CAVITY>
0

>  <SCORE.RESTR.norm>
0

>  <SCORE.SYSTEM>
0

>  <SCORE.SYSTEM.CONST>
0

>  <SCORE.SYSTEM.DIHEDRAL>
0

>  <SCORE.SYSTEM.SOLV>
0

>  <SCORE.SYSTEM.norm>
0

>  <SCORE.heavy>
30

>  <SCORE.norm>
-0.815198

>  <RMSD>
5.129

$$$$
1uts_lig
 OpenBabel11021811413D
libRbt.so/2013.1/901 2013/11/27
 30 33  0  0  0  0  0  0  0  0999 V2000
    0.7253    5.3628   21.4260 N   0  0  0  0  0  0  0  0  0  0  0  0
   -1.5082    4.3581   21.2282 C   0  0  0  0  0  0  0  0  0  0  0  0
   -3.5976    0.9189   18.6603 C   0  0  0  0  0  0  0  0  0  0  0  0
   -2.7535    4.2665   20.3416 C   0  0  0  0  0  0  0  0  0  0  0  0
   -2.4225    3.5805   19.1252 O   0  0  0  0  0  0  0  0  0  0  0  0
   -0.4551    5.2304   20.5425 C   0  0  0  0  0  0  0  0  0  0  0  0
   -2.4155    0.4580   17.8972 N   0  0  0  0  0  0  0  0  0  0  0  0
   -2.8555   -0.3754   16.7471 C   0  0  0  0  0  0  0  0  0  0  0  0
   -2.9229   -1.8461   17.1690 C   0  0  0  0  0  0  0  0  0  0  0  0
   -1.6657   -2.5267   16.7854 N   0  0  0  0  0  0  0  0  0  0  0  0
   -0.5159   -1.8476   17.4492 C   0  0  0  0  0  0  0  0  0  0  0  0
   -1.5115   -2.4816   15.3038 C   0  0  0  0  0  0  0  0  0  0  0  0
    0.7923   -2.5495   17.0501 C   0  0  0  0  0  0  0  0  0  0  0  0
   -0.2000   -3.1809   14.9033 C   0  0  0  0  0  0  0  0  0  0  0  0
    0.9476   -2.5036   15.5685 N   0  0  0  0  0  0  0  0  0  0  0  0
   -5.2701    4.5413   16.8448 C   0  0  0  0  0  0  0  0  0  0  0  0
  -10.4436    3.0891   13.3377 N   0  0  0  0  0  0  0  0  0  0  0  0
   -5.8537    3.2789   16.5818 C   0  0  0  0  0  0  0  0  0  0  0  0
   -5.3064    2.1091   17.1729 C   0  0  0  0  0  0  0  0  0  0  0  0
   -4.1761    2.2022   18.0306 C   0  0  0  0  0  0  0  0  0  0  0  0
   -3.5793    3.4742   18.2815 C   0  0  0  0  0  0  0  0  0  0  0  0
   -4.1333    4.6422   17.6895 C   0  0  0  0  0  0  0  0  0  0  0  0
  -11.3384    3.6670   14.2667 C   0  0  0  0  0  0  0  0  0  0  0  0
  -10.6821    3.9640   15.4828 C   0  0  0  0  0  0  0  0  0  0  0  0
   -8.2373    3.6494   16.1813 C   0  0  0  0  0  0  0  0  0  0  0  0
   -6.9671    3.1948   15.7339 C   0  0  0  0  0  0  0  0  0  0  0  0
   -6.8264    2.6614   14.4233 C   0  0  0  0  0  0  0  0  0  0  0  0
   -7.9539    2.5852   13.5615 C   0  0  0  0  0  0  0  0  0  0  0  0
   -9.2276    3.0562   14.0096 C   0  0  0  0  0  0  0  0  0  0  0  0
   -9.3688    3.5837   15.3062 C   0  0  0  0  0  0  0  0  0  0  0  0
  1  6  1  0  0  0  0
  2  4  1  0  0  0  0
  3  7  1  0  0  0  0
  4  5  1  0  0  0  0
  6  2  1  0  0  0  0
  7  8  1  0  0  0  0
  8  9  1  0  0  0  0
  9 10  1  0  0  0  0
 10 11  1  0  0  0  0
 10 12  1  0  0  0  0
 11 13  1  0  0  0  0
 13 15  1  0  0  0  0
 14 12  1  0  0  0  0
 15 14  1  0  0  0  0
 16 18  2  0  0  0  0
 16 22  1  0  0  0  0
 17 23  1  0  0  0  0
 17 29  1  0  0  0  0
 18 19  1  0  0  0  0
 18 26  1  0  0  0  0
 19 20  2  0  0  0  0
 20  3  1  0  0  0  0
 20 21  1  0  0  0  0
 21  5  1  0  0  0  0
 21 22  2  0  0  0  0
 23 24  2  0  0  0  0
 24 30  1  0  0  0  0
 25 26  2  0  0  0  0
 25 30  1  0  0  0  0
 26 27  1  0  0  0  0
 27 28  2  0  0  0  0
 28 29  1  0  0  0  0
 29 30  2  0  0  0  0
M  END
>  <CHROM.1>
60.93086290,64.90376896,-84.94818723,179.57506716,177.69224538,-90.51272882
-96.09688993,58.99859418,-72.85551152,99.35287061,-111.97004591,-4.11874942
1.81414656,16.97637606,-0.14460161,-0.48143763,0.59056640

>  <Name>
1uts_lig

>  <RI>
0

>  <Rbt.Current_Directory>
/home/itssahil/PROJECTS/Mol_Feturizer/New_Systems/rnas/1uts

>  <Rbt.Executable>
rbdock ($Id: //depot/dev/client3/rdock/2013.1/src/exe/rbdock.cxx#4 $)

>  <Rbt.Library>
libRbt.so (2013.1, Build901 2013/11/27)

>  <Rbt.Parameter_File>
/export/apps/rDock/src/rDock_2013.1_src/data/scripts/dock_solv.prm

>  <Rbt.Receptor>
prm/pocket_docking_8.prm

>  <SCORE>
-16.4483

>  <SCORE.INTER>
-19.4197

>  <SCORE.INTER.CONST>
1

>  <SCORE.INTER.POLAR>
-1.6319

>  <SCORE.INTER.ROT>
10

>  <SCORE.INTER.SOLV>
6.32457

>  <SCORE.INTER.VDW>
-19.8817

>  <SCORE.INTER.norm>
-0.647324

>  <SCORE.INTRA>
2.97146

>  <SCORE.INTRA.DIHEDRAL>
-1.86472

>  <SCORE.INTRA.DIHEDRAL.0>
18.0451

>  <SCORE.INTRA.POLAR>
0.196815

>  <SCORE.INTRA.POLAR.0>
-0.196815

>  <SCORE.INTRA.REPUL>
0

>  <SCORE.INTRA.REPUL.0>
0

>  <SCORE.INTRA.SOLV>
-0.288835

>  <SCORE.INTRA.SOLV.lig_0>
-14.7906

>  <SCORE.INTRA.VDW>
3.37907

>  <SCORE.INTRA.VDW.0>
-0.411701

>  <SCORE.INTRA.norm>
0.0990487

>  <SCORE.RESTR>
0

>  <SCORE.RESTR.CAVITY>
0

>  <SCORE.RESTR.norm>
0

>  <SCORE.SYSTEM>
0

>  <SCORE.SYSTEM.CONST>
0

>  <SCORE.SYSTEM.DIHEDRAL>
0

>  <SCORE.SYSTEM.SOLV>
0

>  <SCORE.SYSTEM.norm>
0

>  <SCORE.heavy>
30

>  <SCORE.norm>
-0.548276

>  <RMSD>
5.511

$$$$
1uts_lig
 OpenBabel11021811413D
libRbt.so/2013.1/901 2013/11/27
 30 33  0  0  0  0  0  0  0  0999 V2000
    3.2049   -0.3847   16.5935 N   0  0  0  0  0  0  0  0  0  0  0  0
    0.8376   -0.4997   17.2413 C   0  0  0  0  0  0  0  0  0  0  0  0
    1.2786    3.2203   15.8115 C   0  0  0  0  0  0  0  0  0  0  0  0
   -0.5634    0.0299   16.9216 C   0  0  0  0  0  0  0  0  0  0  0  0
   -0.6146    1.4375   17.1967 O   0  0  0  0  0  0  0  0  0  0  0  0
    1.8603    0.1725   16.3234 C   0  0  0  0  0  0  0  0  0  0  0  0
    1.4700    4.5815   16.3614 N   0  0  0  0  0  0  0  0  0  0  0  0
    0.8460    4.6699   17.7082 C   0  0  0  0  0  0  0  0  0  0  0  0
    0.9644    6.1009   18.2408 C   0  0  0  0  0  0  0  0  0  0  0  0
    2.0557    6.1665   19.2387 N   0  0  0  0  0  0  0  0  0  0  0  0
    2.1260    7.5456   19.8015 C   0  0  0  0  0  0  0  0  0  0  0  0
    3.3452    5.8050   18.5851 C   0  0  0  0  0  0  0  0  0  0  0  0
    3.2611    7.6186   20.8357 C   0  0  0  0  0  0  0  0  0  0  0  0
    4.4832    5.8813   19.6188 C   0  0  0  0  0  0  0  0  0  0  0  0
    4.5513    7.2584   20.1822 N   0  0  0  0  0  0  0  0  0  0  0  0
   -2.8558    2.7166   14.4449 C   0  0  0  0  0  0  0  0  0  0  0  0
   -3.6621    6.6037    9.3160 N   0  0  0  0  0  0  0  0  0  0  0  0
   -1.9829    3.5968   13.7619 C   0  0  0  0  0  0  0  0  0  0  0  0
   -0.6445    3.7557   14.2103 C   0  0  0  0  0  0  0  0  0  0  0  0
   -0.1778    3.0311   15.3412 C   0  0  0  0  0  0  0  0  0  0  0  0
   -1.0644    2.1564   16.0383 C   0  0  0  0  0  0  0  0  0  0  0  0
   -2.4022    1.9990   15.5830 C   0  0  0  0  0  0  0  0  0  0  0  0
   -2.7681    7.6848    9.4882 C   0  0  0  0  0  0  0  0  0  0  0  0
   -1.9636    7.4973   10.6350 C   0  0  0  0  0  0  0  0  0  0  0  0
   -1.8836    5.5709   12.3223 C   0  0  0  0  0  0  0  0  0  0  0  0
   -2.4506    4.3089   12.6485 C   0  0  0  0  0  0  0  0  0  0  0  0
   -3.4876    3.7674   11.8400 C   0  0  0  0  0  0  0  0  0  0  0  0
   -3.9544    4.4861   10.7064 C   0  0  0  0  0  0  0  0  0  0  0  0
   -3.3724    5.7490   10.3728 C   0  0  0  0  0  0  0  0  0  0  0  0
   -2.3468    6.2866   11.1718 C   0  0  0  0  0  0  0  0  0  0  0  0
  1  6  1  0  0  0  0
  2  4  1  0  0  0  0
  3  7  1  0  0  0  0
  4  5  1  0  0  0  0
  6  2  1  0  0  0  0
  7  8  1  0  0  0  0
  8  9  1  0  0  0  0
  9 10  1  0  0  0  0
 10 11  1  0  0  0  0
 10 12  1  0  0  0  0
 11 13  1  0  0  0  0
 13 15  1  0  0  0  0
 14 12  1  0  0  0  0
 15 14  1  0  0  0  0
 16 18  2  0  0  0  0
 16 22  1  0  0  0  0
 17 23  1  0  0  0  0
 17 29  1  0  0  0  0
 18 19  1  0  0  0  0
 18 26  1  0  0  0  0
 19 20  2  0  0  0  0
 20  3  1  0  0  0  0
 20 21  1  0  0  0  0
 21  5  1  0  0  0  0
 21 22  2  0  0  0  0
 23 24  2  0  0  0  0
 24 30  1  0  0  0  0
 25 26  2  0  0  0  0
 25 30  1  0  0  0  0
 26 27  1  0  0  0  0
 27 28  2  0  0  0  0
 28 29  1  0  0  0  0
 29 30  2  0  0  0  0
M  END
>  <CHROM.1>
-174.28611892,-63.04097927,74.88850254,125.44186267,-177.51883904,-176.40549968
-102.44874806,-177.37689650,151.53226931,68.36518655,-112.48947559,-0.04702183
4.26825267,15.44368645,0.18406797,0.92769291,2.96897891

>  <Name>
1uts_lig

>  <RI>
0

>  <Rbt.Current_Directory>
/home/itssahil/PROJECTS/Mol_Feturizer/New_Systems/rnas/1uts

>  <Rbt.Executable>
rbdock ($Id: //depot/dev/client3/rdock/2013.1/src/exe/rbdock.cxx#4 $)

>  <Rbt.Library>
libRbt.so (2013.1, Build901 2013/11/27)

>  <Rbt.Parameter_File>
/export/apps/rDock/src/rDock_2013.1_src/data/scripts/dock_solv.prm

>  <Rbt.Receptor>
prm/pocket_docking_7.prm

>  <SCORE>
-30.4264

>  <SCORE.INTER>
-32.6924

>  <SCORE.INTER.CONST>
1

>  <SCORE.INTER.POLAR>
-2.32688

>  <SCORE.INTER.ROT>
10

>  <SCORE.INTER.SOLV>
8.85663

>  <SCORE.INTER.VDW>
-27.2575

>  <SCORE.INTER.norm>
-1.08975

>  <SCORE.INTRA>
2.26598

>  <SCORE.INTRA.DIHEDRAL>
0.0616094

>  <SCORE.INTRA.DIHEDRAL.0>
18.0451

>  <SCORE.INTRA.POLAR>
0.196815

>  <SCORE.INTRA.POLAR.0>
-0.196815

>  <SCORE.INTRA.REPUL>
0

>  <SCORE.INTRA.REPUL.0>
0

>  <SCORE.INTRA.SOLV>
-0.302049

>  <SCORE.INTRA.SOLV.lig_0>
-14.7906

>  <SCORE.INTRA.VDW>
1.71703

>  <SCORE.INTRA.VDW.0>
-0.411701

>  <SCORE.INTRA.norm>
0.0755326

>  <SCORE.RESTR>
0

>  <SCORE.RESTR.CAVITY>
0

>  <SCORE.RESTR.norm>
0

>  <SCORE.SYSTEM>
0

>  <SCORE.SYSTEM.CONST>
0

>  <SCORE.SYSTEM.DIHEDRAL>
0

>  <SCORE.SYSTEM.SOLV>
0

>  <SCORE.SYSTEM.norm>
0

>  <SCORE.heavy>
30

>  <SCORE.norm>
-1.01421

>  <RMSD>
5.515

$$$$
1uts_lig
 OpenBabel11021811413D
libRbt.so/2013.1/901 2013/11/27
 30 33  0  0  0  0  0  0  0  0999 V2000
    7.0001    2.4486   20.1428 N   0  0  0  0  0  0  0  0  0  0  0  0
    7.2227    1.3266   17.9683 C   0  0  0  0  0  0  0  0  0  0  0  0
    4.3983    4.9008   15.5923 C   0  0  0  0  0  0  0  0  0  0  0  0
    5.7261    1.3788   17.6477 C   0  0  0  0  0  0  0  0  0  0  0  0
    5.4895    2.3720   16.6391 O   0  0  0  0  0  0  0  0  0  0  0  0
    7.6110    2.5515   18.7983 C   0  0  0  0  0  0  0  0  0  0  0  0
    5.3876    5.0440   16.6845 N   0  0  0  0  0  0  0  0  0  0  0  0
    6.5531    5.8327   16.2044 C   0  0  0  0  0  0  0  0  0  0  0  0
    7.6786    5.7771   17.2415 C   0  0  0  0  0  0  0  0  0  0  0  0
    7.3402    6.6561   18.3833 N   0  0  0  0  0  0  0  0  0  0  0  0
    8.4141    7.6767   18.5540 C   0  0  0  0  0  0  0  0  0  0  0  0
    7.2045    5.8325   19.6178 C   0  0  0  0  0  0  0  0  0  0  0  0
    8.0679    8.5894   19.7417 C   0  0  0  0  0  0  0  0  0  0  0  0
    6.8616    6.7458   20.8085 C   0  0  0  0  0  0  0  0  0  0  0  0
    7.9333    7.7663   20.9769 N   0  0  0  0  0  0  0  0  0  0  0  0
    1.8739    1.3750   16.2333 C   0  0  0  0  0  0  0  0  0  0  0  0
   -4.1533    2.9340   14.4483 N   0  0  0  0  0  0  0  0  0  0  0  0
    1.3072    2.5768   15.7456 C   0  0  0  0  0  0  0  0  0  0  0  0
    2.1308    3.7157   15.5406 C   0  0  0  0  0  0  0  0  0  0  0  0
    3.5234    3.6517   15.8207 C   0  0  0  0  0  0  0  0  0  0  0  0
    4.0898    2.4438   16.3279 C   0  0  0  0  0  0  0  0  0  0  0  0
    3.2610    1.3060   16.5282 C   0  0  0  0  0  0  0  0  0  0  0  0
   -4.0302    3.9202   13.4433 C   0  0  0  0  0  0  0  0  0  0  0  0
   -2.6833    4.3203   13.2904 C   0  0  0  0  0  0  0  0  0  0  0  0
   -0.5601    3.5295   14.4865 C   0  0  0  0  0  0  0  0  0  0  0  0
   -0.0669    2.6328   15.4730 C   0  0  0  0  0  0  0  0  0  0  0  0
   -0.9685    1.7883   16.1774 C   0  0  0  0  0  0  0  0  0  0  0  0
   -2.3601    1.8394   15.8936 C   0  0  0  0  0  0  0  0  0  0  0  0
   -2.8515    2.7327   14.8908 C   0  0  0  0  0  0  0  0  0  0  0  0
   -1.9611    3.5694   14.1933 C   0  0  0  0  0  0  0  0  0  0  0  0
  1  6  1  0  0  0  0
  2  4  1  0  0  0  0
  3  7  1  0  0  0  0
  4  5  1  0  0  0  0
  6  2  1  0  0  0  0
  7  8  1  0  0  0  0
  8  9  1  0  0  0  0
  9 10  1  0  0  0  0
 10 11  1  0  0  0  0
 10 12  1  0  0  0  0
 11 13  1  0  0  0  0
 13 15  1  0  0  0  0
 14 12  1  0  0  0  0
 15 14  1  0  0  0  0
 16 18  2  0  0  0  0
 16 22  1  0  0  0  0
 17 23  1  0  0  0  0
 17 29  1  0  0  0  0
 18 19  1  0  0  0  0
 18 26  1  0  0  0  0
 19 20  2  0  0  0  0
 20  3  1  0  0  0  0
 20 21  1  0  0  0  0
 21  5  1  0  0  0  0
 21 22  2  0  0  0  0
 23 24  2  0  0  0  0
 24 30  1  0  0  0  0
 25 26  2  0  0  0  0
 25 30  1  0  0  0  0
 26 27  1  0  0  0  0
 27 28  2  0  0  0  0
 28 29  1  0  0  0  0
 29 30  2  0  0  0  0
M  END
>  <CHROM.1>
58.52998203,74.20783895,155.77713405,-179.66785376,68.76444520,-170.20731232
-75.26335392,-122.02295520,-152.31011196,139.86629135,153.69614059,3.52297292
3.96921821,16.90417073,-0.28511293,0.41810416,-3.08833285

>  <Name>
1uts_lig

>  <RI>
0

>  <Rbt.Current_Directory>
/home/itssahil/PROJECTS/Mol_Feturizer/New_Systems/rnas/1uts

>  <Rbt.Executable>
rbdock ($Id: //depot/dev/client3/rdock/2013.1/src/exe/rbdock.cxx#4 $)

>  <Rbt.Library>
libRbt.so (2013.1, Build901 2013/11/27)

>  <Rbt.Parameter_File>
/export/apps/rDock/src/rDock_2013.1_src/data/scripts/dock_solv.prm

>  <Rbt.Receptor>
prm/pocket_docking_6.prm

>  <SCORE>
-20.5057

>  <SCORE.INTER>
-16.2775

>  <SCORE.INTER.CONST>
1

>  <SCORE.INTER.POLAR>
-0.632456

>  <SCORE.INTER.ROT>
10

>  <SCORE.INTER.SOLV>
6.48227

>  <SCORE.INTER.VDW>
-21.1709

>  <SCORE.INTER.norm>
-0.542582

>  <SCORE.INTRA>
-4.2282

>  <SCORE.INTRA.DIHEDRAL>
-8.41923

>  <SCORE.INTRA.DIHEDRAL.0>
18.0451

>  <SCORE.INTRA.POLAR>
-0.644526

>  <SCORE.INTRA.POLAR.0>
-0.196815

>  <SCORE.INTRA.REPUL>
0

>  <SCORE.INTRA.REPUL.0>
0

>  <SCORE.INTRA.SOLV>
0.48314

>  <SCORE.INTRA.SOLV.lig_0>
-14.7906

>  <SCORE.INTRA.VDW>
1.93123

>  <SCORE.INTRA.VDW.0>
-0.411701

>  <SCORE.INTRA.norm>
-0.14094

>  <SCORE.RESTR>
0

>  <SCORE.RESTR.CAVITY>
0

>  <SCORE.RESTR.norm>
0

>  <SCORE.SYSTEM>
0

>  <SCORE.SYSTEM.CONST>
0

>  <SCORE.SYSTEM.DIHEDRAL>
0

>  <SCORE.SYSTEM.SOLV>
0

>  <SCORE.SYSTEM.norm>
0

>  <SCORE.heavy>
30

>  <SCORE.norm>
-0.683522

>  <RMSD>
5.561

$$$$
1uts_lig
 OpenBabel11021811413D
libRbt.so/2013.1/901 2013/11/27
 30 33  0  0  0  0  0  0  0  0999 V2000
   -2.0045    0.0536   20.2760 N   0  0  0  0  0  0  0  0  0  0  0  0
   -2.2618    1.7359   18.5038 C   0  0  0  0  0  0  0  0  0  0  0  0
    0.0679    3.4749   15.1541 C   0  0  0  0  0  0  0  0  0  0  0  0
   -2.3996    1.9346   16.9916 C   0  0  0  0  0  0  0  0  0  0  0  0
   -2.4383    3.3388   16.6973 O   0  0  0  0  0  0  0  0  0  0  0  0
   -2.0960    0.2466   18.8111 C   0  0  0  0  0  0  0  0  0  0  0  0
    0.2202    4.4449   16.2622 N   0  0  0  0  0  0  0  0  0  0  0  0
    1.5134    4.2113   16.9581 C   0  0  0  0  0  0  0  0  0  0  0  0
    1.7600    5.3250   17.9800 C   0  0  0  0  0  0  0  0  0  0  0  0
    3.0996    5.1506   18.5851 N   0  0  0  0  0  0  0  0  0  0  0  0
    3.2781    6.1458   19.6812 C   0  0  0  0  0  0  0  0  0  0  0  0
    4.1431    5.3376   17.5377 C   0  0  0  0  0  0  0  0  0  0  0  0
    4.6700    5.9701   20.3096 C   0  0  0  0  0  0  0  0  0  0  0  0
    5.5375    5.1656   18.1666 C   0  0  0  0  0  0  0  0  0  0  0  0
    5.7142    6.1583   19.2628 N   0  0  0  0  0  0  0  0  0  0  0  0
   -3.8555    3.9093   13.2480 C   0  0  0  0  0  0  0  0  0  0  0  0
   -3.2788    5.0191    6.9761 N   0  0  0  0  0  0  0  0  0  0  0  0
   -2.6742    3.9990   12.4735 C   0  0  0  0  0  0  0  0  0  0  0  0
   -1.4061    3.8577   13.0975 C   0  0  0  0  0  0  0  0  0  0  0  0
   -1.3194    3.6235   14.4973 C   0  0  0  0  0  0  0  0  0  0  0  0
   -2.5112    3.5497   15.2791 C   0  0  0  0  0  0  0  0  0  0  0  0
   -3.7779    3.6887   14.6485 C   0  0  0  0  0  0  0  0  0  0  0  0
   -4.6714    5.2600    6.9950 C   0  0  0  0  0  0  0  0  0  0  0  0
   -5.1925    5.1095    8.3002 C   0  0  0  0  0  0  0  0  0  0  0  0
   -4.0275    4.5288   10.5069 C   0  0  0  0  0  0  0  0  0  0  0  0
   -2.7676    4.2316   11.0941 C   0  0  0  0  0  0  0  0  0  0  0  0
   -1.6019    4.1775   10.2814 C   0  0  0  0  0  0  0  0  0  0  0  0
   -1.6965    4.4226    8.8848 C   0  0  0  0  0  0  0  0  0  0  0  0
   -2.9632    4.7350    8.2993 C   0  0  0  0  0  0  0  0  0  0  0  0
   -4.1177    4.7884    9.1016 C   0  0  0  0  0  0  0  0  0  0  0  0
  1  6  1  0  0  0  0
  2  4  1  0  0  0  0
  3  7  1  0  0  0  0
  4  5  1  0  0  0  0
  6  2  1  0  0  0  0
  7  8  1  0  0  0  0
  8  9  1  0  0  0  0
  9 10  1  0  0  0  0
 10 11  1  0  0  0  0
 10 12  1  0  0  0  0
 11 13  1  0  0  0  0
 13 15  1  0  0  0  0
 14 12  1  0  0  0  0
 15 14  1  0  0  0  0
 16 18  2  0  0  0  0
 16 22  1  0  0  0  0
 17 23  1  0  0  0  0
 17 29  1  0  0  0  0
 18 19  1  0  0  0  0
 18 26  1  0  0  0  0
 19 20  2  0  0  0  0
 20  3  1  0  0  0  0
 20 21  1  0  0  0  0
 21  5  1  0  0  0  0
 21 22  2  0  0  0  0
 23 24  2  0  0  0  0
 24 30  1  0  0  0  0
 25 26  2  0  0  0  0
 25 30  1  0  0  0  0
 26 27  1  0  0  0  0
 27 28  2  0  0  0  0
 28 29  1  0  0  0  0
 29 30  2  0  0  0  0
M  END
>  <CHROM.1>
62.33549332,-175.03594039,175.19195106,177.60608452,-178.29070862,172.49877048
-175.18822057,-173.96284043,7.25699797,124.64419156,-87.47589928,-0.77375506
4.09807134,14.72685569,0.89270623,0.51159948,1.95255929

>  <Name>
1uts_lig

>  <RI>
0

>  <Rbt.Current_Directory>
/home/itssahil/PROJECTS/Mol_Feturizer/New_Systems/rnas/1uts

>  <Rbt.Executable>
rbdock ($Id: //depot/dev/client3/rdock/2013.1/src/exe/rbdock.cxx#4 $)

>  <Rbt.Library>
libRbt.so (2013.1, Build901 2013/11/27)

>  <Rbt.Parameter_File>
/export/apps/rDock/src/rDock_2013.1_src/data/scripts/dock_solv.prm

>  <Rbt.Receptor>
prm/pocket_docking_6.prm

>  <SCORE>
-29.7548

>  <SCORE.INTER>
-23.5396

>  <SCORE.INTER.CONST>
1

>  <SCORE.INTER.POLAR>
-1.52688

>  <SCORE.INTER.ROT>
10

>  <SCORE.INTER.SOLV>
6.96703

>  <SCORE.INTER.VDW>
-23.1924

>  <SCORE.INTER.norm>
-0.784652

>  <SCORE.INTRA>
-6.21524

>  <SCORE.INTRA.DIHEDRAL>
-11.9631

>  <SCORE.INTRA.DIHEDRAL.0>
18.0451

>  <SCORE.INTRA.POLAR>
-0.338972

>  <SCORE.INTRA.POLAR.0>
-0.196815

>  <SCORE.INTRA.REPUL>
0

>  <SCORE.INTRA.REPUL.0>
0

>  <SCORE.INTRA.SOLV>
-0.380075

>  <SCORE.INTRA.SOLV.lig_0>
-14.7906

>  <SCORE.INTRA.VDW>
1.10884

>  <SCORE.INTRA.VDW.0>
-0.411701

>  <SCORE.INTRA.norm>
-0.207175

>  <SCORE.RESTR>
0

>  <SCORE.RESTR.CAVITY>
0

>  <SCORE.RESTR.norm>
0

>  <SCORE.SYSTEM>
0

>  <SCORE.SYSTEM.CONST>
0

>  <SCORE.SYSTEM.DIHEDRAL>
0

>  <SCORE.SYSTEM.SOLV>
0

>  <SCORE.SYSTEM.norm>
0

>  <SCORE.heavy>
30

>  <SCORE.norm>
-0.991826

>  <RMSD>
5.580

$$$$
1uts_lig
 OpenBabel11021811413D
libRbt.so/2013.1/901 2013/11/27
 30 33  0  0  0  0  0  0  0  0999 V2000
   -2.9408    9.2429   16.2390 N   0  0  0  0  0  0  0  0  0  0  0  0
   -0.8748    8.4418   15.1774 C   0  0  0  0  0  0  0  0  0  0  0  0
   -3.0176    5.5945   16.0157 C   0  0  0  0  0  0  0  0  0  0  0  0
    0.3219    7.5055   15.3686 C   0  0  0  0  0  0  0  0  0  0  0  0
   -0.1502    6.1888   15.6898 O   0  0  0  0  0  0  0  0  0  0  0  0
   -1.6612    8.5406   16.4858 C   0  0  0  0  0  0  0  0  0  0  0  0
   -3.0497    4.3702   16.8477 N   0  0  0  0  0  0  0  0  0  0  0  0
   -1.6875    4.0839   17.3706 C   0  0  0  0  0  0  0  0  0  0  0  0
   -1.7817    3.1354   18.5693 C   0  0  0  0  0  0  0  0  0  0  0  0
   -0.4257    2.6684   18.9356 N   0  0  0  0  0  0  0  0  0  0  0  0
   -0.5283    1.3482   19.6215 C   0  0  0  0  0  0  0  0  0  0  0  0
    0.2172    3.6712   19.8310 C   0  0  0  0  0  0  0  0  0  0  0  0
    0.8781    0.8617   20.0070 C   0  0  0  0  0  0  0  0  0  0  0  0
    1.6242    3.1833   20.2207 C   0  0  0  0  0  0  0  0  0  0  0  0
    1.5212    1.8637   20.9036 N   0  0  0  0  0  0  0  0  0  0  0  0
   -0.9012    4.8178   12.2564 C   0  0  0  0  0  0  0  0  0  0  0  0
   -4.8060    2.2946    7.8664 N   0  0  0  0  0  0  0  0  0  0  0  0
   -2.2754    4.5012   12.3779 C   0  0  0  0  0  0  0  0  0  0  0  0
   -2.9550    4.7550   13.5991 C   0  0  0  0  0  0  0  0  0  0  0  0
   -2.2602    5.3290   14.6990 C   0  0  0  0  0  0  0  0  0  0  0  0
   -0.8706    5.6324   14.5796 C   0  0  0  0  0  0  0  0  0  0  0  0
   -0.1963    5.3790   13.3538 C   0  0  0  0  0  0  0  0  0  0  0  0
   -3.9572    2.8673    6.8921 C   0  0  0  0  0  0  0  0  0  0  0  0
   -2.9710    3.6798    7.4961 C   0  0  0  0  0  0  0  0  0  0  0  0
   -2.5164    4.1993    9.9634 C   0  0  0  0  0  0  0  0  0  0  0  0
   -2.9534    3.9341   11.2897 C   0  0  0  0  0  0  0  0  0  0  0  0
   -4.0744    3.0876   11.5108 C   0  0  0  0  0  0  0  0  0  0  0  0
   -4.7552    2.5060   10.4072 C   0  0  0  0  0  0  0  0  0  0  0  0
   -4.3046    2.7636    9.0746 C   0  0  0  0  0  0  0  0  0  0  0  0
   -3.1960    3.6013    8.8539 C   0  0  0  0  0  0  0  0  0  0  0  0
  1  6  1  0  0  0  0
  2  4  1  0  0  0  0
  3  7  1  0  0  0  0
  4  5  1  0  0  0  0
  6  2  1  0  0  0  0
  7  8  1  0  0  0  0
  8  9  1  0  0  0  0
  9 10  1  0  0  0  0
 10 11  1  0  0  0  0
 10 12  1  0  0  0  0
 11 13  1  0  0  0  0
 13 15  1  0  0  0  0
 14 12  1  0  0  0  0
 15 14  1  0  0  0  0
 16 18  2  0  0  0  0
 16 22  1  0  0  0  0
 17 23  1  0  0  0  0
 17 29  1  0  0  0  0
 18 19  1  0  0  0  0
 18 26  1  0  0  0  0
 19 20  2  0  0  0  0
 20  3  1  0  0  0  0
 20 21  1  0  0  0  0
 21  5  1  0  0  0  0
 21 22  2  0  0  0  0
 23 24  2  0  0  0  0
 24 30  1  0  0  0  0
 25 26  2  0  0  0  0
 25 30  1  0  0  0  0
 26 27  1  0  0  0  0
 27 28  2  0  0  0  0
 28 29  1  0  0  0  0
 29 30  2  0  0  0  0
M  END
>  <CHROM.1>
-157.32109989,62.37958917,70.12329768,65.47963488,-169.93494542,161.31499117
170.18809498,-154.38809885,-27.66934669,84.35505829,-116.27900009,-1.77286499
4.36577588,14.59050894,0.01475083,-1.22259150,0.01033820

>  <Name>
1uts_lig

>  <RI>
0

>  <Rbt.Current_Directory>
/home/itssahil/PROJECTS/Mol_Feturizer/New_Systems/rnas/1uts

>  <Rbt.Executable>
rbdock ($Id: //depot/dev/client3/rdock/2013.1/src/exe/rbdock.cxx#4 $)

>  <Rbt.Library>
libRbt.so (2013.1, Build901 2013/11/27)

>  <Rbt.Parameter_File>
/export/apps/rDock/src/rDock_2013.1_src/data/scripts/dock_solv.prm

>  <Rbt.Receptor>
prm/pocket_docking_6.prm

>  <SCORE>
1747.24

>  <SCORE.INTER>
1737.02

>  <SCORE.INTER.CONST>
1

>  <SCORE.INTER.POLAR>
-0.244065

>  <SCORE.INTER.ROT>
10

>  <SCORE.INTER.SOLV>
20.418

>  <SCORE.INTER.VDW>
1141.76

>  <SCORE.INTER.norm>
57.9007

>  <SCORE.INTRA>
-2.15437

>  <SCORE.INTRA.DIHEDRAL>
-8.00919

>  <SCORE.INTRA.DIHEDRAL.0>
18.0451

>  <SCORE.INTRA.POLAR>
0.196815

>  <SCORE.INTRA.POLAR.0>
-0.196815

>  <SCORE.INTRA.REPUL>
0

>  <SCORE.INTRA.REPUL.0>
0

>  <SCORE.INTRA.SOLV>
-0.326429

>  <SCORE.INTRA.SOLV.lig_0>
-14.7906

>  <SCORE.INTRA.VDW>
1.34427

>  <SCORE.INTRA.VDW.0>
-0.411701

>  <SCORE.INTRA.norm>
-0.0718123

>  <SCORE.RESTR>
12.3695

>  <SCORE.RESTR.CAVITY>
12.3695

>  <SCORE.RESTR.norm>
0.412316

>  <SCORE.SYSTEM>
0

>  <SCORE.SYSTEM.CONST>
0

>  <SCORE.SYSTEM.DIHEDRAL>
0

>  <SCORE.SYSTEM.SOLV>
0

>  <SCORE.SYSTEM.norm>
0

>  <SCORE.heavy>
30

>  <SCORE.norm>
58.2412

>  <RMSD>
5.581

$$$$
1uts_lig
 OpenBabel11021811413D
libRbt.so/2013.1/901 2013/11/27
 30 33  0  0  0  0  0  0  0  0999 V2000
    0.2799   -1.9301   15.0940 N   0  0  0  0  0  0  0  0  0  0  0  0
   -1.0429   -0.6412   16.7145 C   0  0  0  0  0  0  0  0  0  0  0  0
   -1.1192    4.5639   16.7716 C   0  0  0  0  0  0  0  0  0  0  0  0
   -0.5747    0.6085   15.9634 C   0  0  0  0  0  0  0  0  0  0  0  0
   -1.4796    1.6905   16.2287 O   0  0  0  0  0  0  0  0  0  0  0  0
   -0.0162   -1.7609   16.5345 C   0  0  0  0  0  0  0  0  0  0  0  0
   -0.0469    3.8150   17.4655 N   0  0  0  0  0  0  0  0  0  0  0  0
    1.2042    3.8736   16.6641 C   0  0  0  0  0  0  0  0  0  0  0  0
    2.3511    3.2269   17.4464 C   0  0  0  0  0  0  0  0  0  0  0  0
    3.5674    3.1976   16.6034 N   0  0  0  0  0  0  0  0  0  0  0  0
    4.5721    2.2845   17.2203 C   0  0  0  0  0  0  0  0  0  0  0  0
    4.1206    4.5764   16.4860 C   0  0  0  0  0  0  0  0  0  0  0  0
    5.8385    2.2545   16.3494 C   0  0  0  0  0  0  0  0  0  0  0  0
    5.3909    4.5470   15.6171 C   0  0  0  0  0  0  0  0  0  0  0  0
    6.3930    3.6330   16.2326 N   0  0  0  0  0  0  0  0  0  0  0  0
   -1.7143    3.0284   12.7092 C   0  0  0  0  0  0  0  0  0  0  0  0
   -1.7181    7.7612    8.4097 N   0  0  0  0  0  0  0  0  0  0  0  0
   -1.5628    4.4183   12.9295 C   0  0  0  0  0  0  0  0  0  0  0  0
   -1.3708    4.9092   14.2485 C   0  0  0  0  0  0  0  0  0  0  0  0
   -1.3271    4.0087   15.3480 C   0  0  0  0  0  0  0  0  0  0  0  0
   -1.4963    2.6090   15.1255 C   0  0  0  0  0  0  0  0  0  0  0  0
   -1.6851    2.1231   13.8027 C   0  0  0  0  0  0  0  0  0  0  0  0
   -1.2790    6.8028    7.4682 C   0  0  0  0  0  0  0  0  0  0  0  0
   -1.0113    5.5646    8.0950 C   0  0  0  0  0  0  0  0  0  0  0  0
   -1.2306    4.8514   10.5459 C   0  0  0  0  0  0  0  0  0  0  0  0
   -1.6086    5.3002   11.8406 C   0  0  0  0  0  0  0  0  0  0  0  0
   -2.0394    6.6424   12.0278 C   0  0  0  0  0  0  0  0  0  0  0  0
   -2.0941    7.5327   10.9215 C   0  0  0  0  0  0  0  0  0  0  0  0
   -1.7265    7.0743    9.6178 C   0  0  0  0  0  0  0  0  0  0  0  0
   -1.2994    5.7469    9.4308 C   0  0  0  0  0  0  0  0  0  0  0  0
  1  6  1  0  0  0  0
  2  4  1  0  0  0  0
  3  7  1  0  0  0  0
  4  5  1  0  0  0  0
  6  2  1  0  0  0  0
  7  8  1  0  0  0  0
  8  9  1  0  0  0  0
  9 10  1  0  0  0  0
 10 11  1  0  0  0  0
 10 12  1  0  0  0  0
 11 13  1  0  0  0  0
 13 15  1  0  0  0  0
 14 12  1  0  0  0  0
 15 14  1  0  0  0  0
 16 18  2  0  0  0  0
 16 22  1  0  0  0  0
 17 23  1  0  0  0  0
 17 29  1  0  0  0  0
 18 19  1  0  0  0  0
 18 26  1  0  0  0  0
 19 20  2  0  0  0  0
 20  3  1  0  0  0  0
 20 21  1  0  0  0  0
 21  5  1  0  0  0  0
 21 22  2  0  0  0  0
 23 24  2  0  0  0  0
 24 30  1  0  0  0  0
 25 26  2  0  0  0  0
 25 30  1  0  0  0  0
 26 27  1  0  0  0  0
 27 28  2  0  0  0  0
 28 29  1  0  0  0  0
 29 30  2  0  0  0  0
M  END
>  <CHROM.1>
89.79126218,-175.04980544,56.49484020,-151.88580715,-51.25229370,174.10951868
175.78870234,-166.22892353,-27.16814816,-130.84241460,-129.77382803,0.32029774
3.64023048,14.13628009,1.04267346,0.40452101,2.36608195

>  <Name>
1uts_lig

>  <RI>
0

>  <Rbt.Current_Directory>
/home/itssahil/PROJECTS/Mol_Feturizer/New_Systems/rnas/1uts

>  <Rbt.Executable>
rbdock ($Id: //depot/dev/client3/rdock/2013.1/src/exe/rbdock.cxx#4 $)

>  <Rbt.Library>
libRbt.so (2013.1, Build901 2013/11/27)

>  <Rbt.Parameter_File>
/export/apps/rDock/src/rDock_2013.1_src/data/scripts/dock_solv.prm

>  <Rbt.Receptor>
prm/pocket_docking_6.prm

>  <SCORE>
-29.6264

>  <SCORE.INTER>
-28.4202

>  <SCORE.INTER.CONST>
1

>  <SCORE.INTER.POLAR>
-0.966542

>  <SCORE.INTER.ROT>
10

>  <SCORE.INTER.SOLV>
8.9478

>  <SCORE.INTER.VDW>
-28.9743

>  <SCORE.INTER.norm>
-0.94734

>  <SCORE.INTRA>
-1.82608

>  <SCORE.INTRA.DIHEDRAL>
-7.4726

>  <SCORE.INTRA.DIHEDRAL.0>
18.0451

>  <SCORE.INTRA.POLAR>
-0.163741

>  <SCORE.INTRA.POLAR.0>
-0.196815

>  <SCORE.INTRA.REPUL>
0

>  <SCORE.INTRA.REPUL.0>
0

>  <SCORE.INTRA.SOLV>
-0.157472

>  <SCORE.INTRA.SOLV.lig_0>
-14.7906

>  <SCORE.INTRA.VDW>
2.54568

>  <SCORE.INTRA.VDW.0>
-0.411701

>  <SCORE.INTRA.norm>
-0.0608692

>  <SCORE.RESTR>
0.619877

>  <SCORE.RESTR.CAVITY>
0.619877

>  <SCORE.RESTR.norm>
0.0206626

>  <SCORE.SYSTEM>
0

>  <SCORE.SYSTEM.CONST>
0

>  <SCORE.SYSTEM.DIHEDRAL>
0

>  <SCORE.SYSTEM.SOLV>
0

>  <SCORE.SYSTEM.norm>
0

>  <SCORE.heavy>
30

>  <SCORE.norm>
-0.987547

>  <RMSD>
5.597

$$$$
1uts_lig
 OpenBabel11021811413D
libRbt.so/2013.1/901 2013/11/27
 30 33  0  0  0  0  0  0  0  0999 V2000
   -0.4014    2.0793   19.2677 N   0  0  0  0  0  0  0  0  0  0  0  0
   -2.8501    2.1529   19.0787 C   0  0  0  0  0  0  0  0  0  0  0  0
   -0.1892    3.9267   15.8238 C   0  0  0  0  0  0  0  0  0  0  0  0
   -2.7861    2.2448   17.5514 C   0  0  0  0  0  0  0  0  0  0  0  0
   -2.7996    3.6245   17.1564 O   0  0  0  0  0  0  0  0  0  0  0  0
   -1.6136    2.8203   19.6836 C   0  0  0  0  0  0  0  0  0  0  0  0
   -0.2353    4.9800   16.8633 N   0  0  0  0  0  0  0  0  0  0  0  0
    0.9933    4.9138   17.6983 C   0  0  0  0  0  0  0  0  0  0  0  0
    1.0711    6.1465   18.6037 C   0  0  0  0  0  0  0  0  0  0  0  0
    2.4157    6.2224   19.2179 N   0  0  0  0  0  0  0  0  0  0  0  0
    2.5128    5.2183   20.3162 C   0  0  0  0  0  0  0  0  0  0  0  0
    2.6397    7.5969   19.7485 C   0  0  0  0  0  0  0  0  0  0  0  0
    3.9070    5.2969   20.9591 C   0  0  0  0  0  0  0  0  0  0  0  0
    4.0340    7.6758   20.3959 C   0  0  0  0  0  0  0  0  0  0  0  0
    4.1310    6.6711   21.4911 N   0  0  0  0  0  0  0  0  0  0  0  0
   -3.9457    3.8169   13.5674 C   0  0  0  0  0  0  0  0  0  0  0  0
   -2.9018    4.6053    7.3046 N   0  0  0  0  0  0  0  0  0  0  0  0
   -2.7136    3.9815   12.8906 C   0  0  0  0  0  0  0  0  0  0  0  0
   -1.5001    4.0167   13.6279 C   0  0  0  0  0  0  0  0  0  0  0  0
   -1.5186    3.8840   15.0435 C   0  0  0  0  0  0  0  0  0  0  0  0
   -2.7634    3.7344   15.7255 C   0  0  0  0  0  0  0  0  0  0  0  0
   -3.9748    3.6968   14.9819 C   0  0  0  0  0  0  0  0  0  0  0  0
   -4.2842    4.8826    7.2060 C   0  0  0  0  0  0  0  0  0  0  0  0
   -4.8994    4.8429    8.4779 C   0  0  0  0  0  0  0  0  0  0  0  0
   -3.9096    4.3982   10.7988 C   0  0  0  0  0  0  0  0  0  0  0  0
   -2.7034    4.1132   11.4948 C   0  0  0  0  0  0  0  0  0  0  0  0
   -1.4861    3.9690   10.7740 C   0  0  0  0  0  0  0  0  0  0  0  0
   -1.4755    4.1119    9.3601 C   0  0  0  0  0  0  0  0  0  0  0  0
   -2.6881    4.4124    8.6641 C   0  0  0  0  0  0  0  0  0  0  0  0
   -3.8935    4.5548    9.3756 C   0  0  0  0  0  0  0  0  0  0  0  0
  1  6  1  0  0  0  0
  2  4  1  0  0  0  0
  3  7  1  0  0  0  0
  4  5  1  0  0  0  0
  6  2  1  0  0  0  0
  7  8  1  0  0  0  0
  8  9  1  0  0  0  0
  9 10  1  0  0  0  0
 10 11  1  0  0  0  0
 10 12  1  0  0  0  0
 11 13  1  0  0  0  0
 13 15  1  0  0  0  0
 14 12  1  0  0  0  0
 15 14  1  0  0  0  0
 16 18  2  0  0  0  0
 16 22  1  0  0  0  0
 17 23  1  0  0  0  0
 17 29  1  0  0  0  0
 18 19  1  0  0  0  0
 18 26  1  0  0  0  0
 19 20  2  0  0  0  0
 20  3  1  0  0  0  0
 20 21  1  0  0  0  0
 21  5  1  0  0  0  0
 21 22  2  0  0  0  0
 23 24  2  0  0  0  0
 24 30  1  0  0  0  0
 25 26  2  0  0  0  0
 25 30  1  0  0  0  0
 26 27  1  0  0  0  0
 27 28  2  0  0  0  0
 28 29  1  0  0  0  0
 29 30  2  0  0  0  0
M  END
>  <CHROM.1>
-175.53404137,-62.25504103,174.07231541,-179.00993046,-63.57679842,169.85307232
-168.21503245,-76.14834767,14.89220889,124.45203371,-93.40481421,-1.00553550
4.49901652,15.33860453,0.97165672,0.61364607,1.83450974

>  <Name>
1uts_lig

>  <RI>
0

>  <Rbt.Current_Directory>
/home/itssahil/PROJECTS/Mol_Feturizer/New_Systems/rnas/1uts

>  <Rbt.Executable>
rbdock ($Id: //depot/dev/client3/rdock/2013.1/src/exe/rbdock.cxx#4 $)

>  <Rbt.Library>
libRbt.so (2013.1, Build901 2013/11/27)

>  <Rbt.Parameter_File>
/export/apps/rDock/src/rDock_2013.1_src/data/scripts/dock_solv.prm

>  <Rbt.Receptor>
prm/pocket_docking_6.prm

>  <SCORE>
-27.4427

>  <SCORE.INTER>
-20.6292

>  <SCORE.INTER.CONST>
1

>  <SCORE.INTER.POLAR>
-0.894427

>  <SCORE.INTER.ROT>
10

>  <SCORE.INTER.SOLV>
7.22334

>  <SCORE.INTER.VDW>
-23.4458

>  <SCORE.INTER.norm>
-0.687641

>  <SCORE.INTRA>
-6.81352

>  <SCORE.INTRA.DIHEDRAL>
-10.6257

>  <SCORE.INTRA.DIHEDRAL.0>
18.0451

>  <SCORE.INTRA.POLAR>
-0.413717

>  <SCORE.INTRA.POLAR.0>
-0.196815

>  <SCORE.INTRA.REPUL>
0

>  <SCORE.INTRA.REPUL.0>
0

>  <SCORE.INTRA.SOLV>
0.402034

>  <SCORE.INTRA.SOLV.lig_0>
-14.7906

>  <SCORE.INTRA.VDW>
-0.29506

>  <SCORE.INTRA.VDW.0>
-0.411701

>  <SCORE.INTRA.norm>
-0.227117

>  <SCORE.RESTR>
0

>  <SCORE.RESTR.CAVITY>
0

>  <SCORE.RESTR.norm>
0

>  <SCORE.SYSTEM>
0

>  <SCORE.SYSTEM.CONST>
0

>  <SCORE.SYSTEM.DIHEDRAL>
0

>  <SCORE.SYSTEM.SOLV>
0

>  <SCORE.SYSTEM.norm>
0

>  <SCORE.heavy>
30

>  <SCORE.norm>
-0.914758

>  <RMSD>
5.684

$$$$
1uts_lig
 OpenBabel11021811413D
libRbt.so/2013.1/901 2013/11/27
 30 33  0  0  0  0  0  0  0  0999 V2000
   -3.7299    1.9762   18.3836 N   0  0  0  0  0  0  0  0  0  0  0  0
   -2.8481    4.2686   18.4466 C   0  0  0  0  0  0  0  0  0  0  0  0
   -0.2330    3.1080   14.6320 C   0  0  0  0  0  0  0  0  0  0  0  0
   -2.9622    4.5187   16.9401 C   0  0  0  0  0  0  0  0  0  0  0  0
   -2.6988    3.2976   16.2334 O   0  0  0  0  0  0  0  0  0  0  0  0
   -3.9781    3.3418   18.8984 C   0  0  0  0  0  0  0  0  0  0  0  0
    0.2896    4.2822   15.3671 N   0  0  0  0  0  0  0  0  0  0  0  0
    1.6194    3.9581   15.9481 C   0  0  0  0  0  0  0  0  0  0  0  0
    1.9304    4.9203   17.0983 C   0  0  0  0  0  0  0  0  0  0  0  0
    3.2970    4.6590   17.6033 N   0  0  0  0  0  0  0  0  0  0  0  0
    3.5386    5.4857   18.8206 C   0  0  0  0  0  0  0  0  0  0  0  0
    4.2884    4.9938   16.5421 C   0  0  0  0  0  0  0  0  0  0  0  0
    4.9587    5.2199   19.3458 C   0  0  0  0  0  0  0  0  0  0  0  0
    5.7110    4.7315   17.0682 C   0  0  0  0  0  0  0  0  0  0  0  0
    5.9506    5.5557   18.2853 N   0  0  0  0  0  0  0  0  0  0  0  0
   -4.1117    4.0409   12.8154 C   0  0  0  0  0  0  0  0  0  0  0  0
   -3.5512    5.0462    6.5252 N   0  0  0  0  0  0  0  0  0  0  0  0
   -2.9473    3.9767   12.0133 C   0  0  0  0  0  0  0  0  0  0  0  0
   -1.6935    3.6744   12.6084 C   0  0  0  0  0  0  0  0  0  0  0  0
   -1.6047    3.4329   14.0069 C   0  0  0  0  0  0  0  0  0  0  0  0
   -2.7774    3.5142   14.8164 C   0  0  0  0  0  0  0  0  0  0  0  0
   -4.0303    3.8141   14.2147 C   0  0  0  0  0  0  0  0  0  0  0  0
   -4.9217    5.3899    6.5638 C   0  0  0  0  0  0  0  0  0  0  0  0
   -5.4342    5.2768    7.8761 C   0  0  0  0  0  0  0  0  0  0  0  0
   -4.2849    4.6082   10.0661 C   0  0  0  0  0  0  0  0  0  0  0  0
   -3.0424    4.2174   10.6354 C   0  0  0  0  0  0  0  0  0  0  0  0
   -1.8954    4.0780    9.8065 C   0  0  0  0  0  0  0  0  0  0  0  0
   -1.9911    4.3312    8.4114 C   0  0  0  0  0  0  0  0  0  0  0  0
   -3.2391    4.7377    7.8438 C   0  0  0  0  0  0  0  0  0  0  0  0
   -4.3751    4.8756    8.6623 C   0  0  0  0  0  0  0  0  0  0  0  0
  1  6  1  0  0  0  0
  2  4  1  0  0  0  0
  3  7  1  0  0  0  0
  4  5  1  0  0  0  0
  6  2  1  0  0  0  0
  7  8  1  0  0  0  0
  8  9  1  0  0  0  0
  9 10  1  0  0  0  0
 10 11  1  0  0  0  0
 10 12  1  0  0  0  0
 11 13  1  0  0  0  0
 13 15  1  0  0  0  0
 14 12  1  0  0  0  0
 15 14  1  0  0  0  0
 16 18  2  0  0  0  0
 16 22  1  0  0  0  0
 17 23  1  0  0  0  0
 17 29  1  0  0  0  0
 18 19  1  0  0  0  0
 18 26  1  0  0  0  0
 19 20  2  0  0  0  0
 20  3  1  0  0  0  0
 20 21  1  0  0  0  0
 21  5  1  0  0  0  0
 21 22  2  0  0  0  0
 23 24  2  0  0  0  0
 24 30  1  0  0  0  0
 25 26  2  0  0  0  0
 25 30  1  0  0  0  0
 26 27  1  0  0  0  0
 27 28  2  0  0  0  0
 28 29  1  0  0  0  0
 29 30  2  0  0  0  0
M  END
>  <CHROM.1>
-167.56333605,-67.13296439,-179.26617023,-178.99144546,70.94953843,-159.30051782
-175.70882823,-173.51479932,4.07611479,104.53547644,111.96876577,-1.03493948
4.30106212,14.09021835,0.90672042,0.20335473,1.72088277

>  <Name>
1uts_lig

>  <RI>
0

>  <Rbt.Current_Directory>
/home/itssahil/PROJECTS/Mol_Feturizer/New_Systems/rnas/1uts

>  <Rbt.Executable>
rbdock ($Id: //depot/dev/client3/rdock/2013.1/src/exe/rbdock.cxx#4 $)

>  <Rbt.Library>
libRbt.so (2013.1, Build901 2013/11/27)

>  <Rbt.Parameter_File>
/export/apps/rDock/src/rDock_2013.1_src/data/scripts/dock_solv.prm

>  <Rbt.Receptor>
prm/pocket_docking_7.prm

>  <SCORE>
-33.9165

>  <SCORE.INTER>
-28.5733

>  <SCORE.INTER.CONST>
1

>  <SCORE.INTER.POLAR>
-2.07866

>  <SCORE.INTER.ROT>
10

>  <SCORE.INTER.SOLV>
8.11036

>  <SCORE.INTER.VDW>
-25.0902

>  <SCORE.INTER.norm>
-0.952444

>  <SCORE.INTRA>
-5.34312

>  <SCORE.INTRA.DIHEDRAL>
-11.0376

>  <SCORE.INTRA.DIHEDRAL.0>
18.0451

>  <SCORE.INTRA.POLAR>
-0.526429

>  <SCORE.INTRA.POLAR.0>
-0.196815

>  <SCORE.INTRA.REPUL>
0

>  <SCORE.INTRA.REPUL.0>
0

>  <SCORE.INTRA.SOLV>
0.0917466

>  <SCORE.INTRA.SOLV.lig_0>
-14.7906

>  <SCORE.INTRA.VDW>
1.91967

>  <SCORE.INTRA.VDW.0>
-0.411701

>  <SCORE.INTRA.norm>
-0.178104

>  <SCORE.RESTR>
0

>  <SCORE.RESTR.CAVITY>
0

>  <SCORE.RESTR.norm>
0

>  <SCORE.SYSTEM>
0

>  <SCORE.SYSTEM.CONST>
0

>  <SCORE.SYSTEM.DIHEDRAL>
0

>  <SCORE.SYSTEM.SOLV>
0

>  <SCORE.SYSTEM.norm>
0

>  <SCORE.heavy>
30

>  <SCORE.norm>
-1.13055

>  <RMSD>
5.743

$$$$
1uts_lig
 OpenBabel11021811413D
libRbt.so/2013.1/901 2013/11/27
 30 33  0  0  0  0  0  0  0  0999 V2000
   -4.3829    1.5743   20.6995 N   0  0  0  0  0  0  0  0  0  0  0  0
   -3.8115    1.6430   18.3107 C   0  0  0  0  0  0  0  0  0  0  0  0
   -0.4095    2.1743   15.3337 C   0  0  0  0  0  0  0  0  0  0  0  0
   -3.4301    2.5696   17.1526 C   0  0  0  0  0  0  0  0  0  0  0  0
   -3.2639    1.7935   15.9568 O   0  0  0  0  0  0  0  0  0  0  0  0
   -4.0795    2.4762   19.5654 C   0  0  0  0  0  0  0  0  0  0  0  0
   -0.5379    0.7013   15.2574 N   0  0  0  0  0  0  0  0  0  0  0  0
   -1.1348    0.1846   16.5175 C   0  0  0  0  0  0  0  0  0  0  0  0
   -1.5923   -1.2633   16.3183 C   0  0  0  0  0  0  0  0  0  0  0  0
   -0.4086   -2.1335   16.1380 N   0  0  0  0  0  0  0  0  0  0  0  0
   -0.8231   -3.3934   15.4561 C   0  0  0  0  0  0  0  0  0  0  0  0
    0.1902   -2.4352   17.4689 C   0  0  0  0  0  0  0  0  0  0  0  0
    0.4033   -4.3016   15.2706 C   0  0  0  0  0  0  0  0  0  0  0  0
    1.4161   -3.3477   17.2847 C   0  0  0  0  0  0  0  0  0  0  0  0
    1.0019   -4.6047   16.6015 N   0  0  0  0  0  0  0  0  0  0  0  0
   -3.5709    4.1308   13.0116 C   0  0  0  0  0  0  0  0  0  0  0  0
   -0.8754    7.5807    8.2825 N   0  0  0  0  0  0  0  0  0  0  0  0
   -2.2106    4.3542   12.6910 C   0  0  0  0  0  0  0  0  0  0  0  0
   -1.1911    3.7174   13.4478 C   0  0  0  0  0  0  0  0  0  0  0  0
   -1.5327    2.8538   14.5245 C   0  0  0  0  0  0  0  0  0  0  0  0
   -2.9047    2.6428   14.8565 C   0  0  0  0  0  0  0  0  0  0  0  0
   -3.9210    3.2804   14.0935 C   0  0  0  0  0  0  0  0  0  0  0  0
   -0.4767    6.5372    7.4165 C   0  0  0  0  0  0  0  0  0  0  0  0
   -0.5810    5.2815    8.0568 C   0  0  0  0  0  0  0  0  0  0  0  0
   -1.3757    4.6699   10.4144 C   0  0  0  0  0  0  0  0  0  0  0  0
   -1.8815    5.2081   11.6289 C   0  0  0  0  0  0  0  0  0  0  0  0
   -2.0595    6.6127   11.7619 C   0  0  0  0  0  0  0  0  0  0  0  0
   -1.7343    7.4764   10.6813 C   0  0  0  0  0  0  0  0  0  0  0  0
   -1.2387    6.9307    9.4559 C   0  0  0  0  0  0  0  0  0  0  0  0
   -1.0614    5.5414    9.3226 C   0  0  0  0  0  0  0  0  0  0  0  0
  1  6  1  0  0  0  0
  2  4  1  0  0  0  0
  3  7  1  0  0  0  0
  4  5  1  0  0  0  0
  6  2  1  0  0  0  0
  7  8  1  0  0  0  0
  8  9  1  0  0  0  0
  9 10  1  0  0  0  0
 10 11  1  0  0  0  0
 10 12  1  0  0  0  0
 11 13  1  0  0  0  0
 13 15  1  0  0  0  0
 14 12  1  0  0  0  0
 15 14  1  0  0  0  0
 16 18  2  0  0  0  0
 16 22  1  0  0  0  0
 17 23  1  0  0  0  0
 17 29  1  0  0  0  0
 18 19  1  0  0  0  0
 18 26  1  0  0  0  0
 19 20  2  0  0  0  0
 20  3  1  0  0  0  0
 20 21  1  0  0  0  0
 21  5  1  0  0  0  0
 21 22  2  0  0  0  0
 23 24  2  0  0  0  0
 24 30  1  0  0  0  0
 25 26  2  0  0  0  0
 25 30  1  0  0  0  0
 26 27  1  0  0  0  0
 27 28  2  0  0  0  0
 28 29  1  0  0  0  0
 29 30  2  0  0  0  0
M  END
>  <CHROM.1>
-61.94458506,-176.29941918,-102.30637764,-179.95898191,-177.24725397,165.87652104
68.00080037,-159.06043355,-107.70537490,-120.55975714,93.48568902,-1.57469136
2.10787545,14.28178467,1.51360070,-0.91474201,2.33923401

>  <Name>
1uts_lig

>  <RI>
0

>  <Rbt.Current_Directory>
/home/itssahil/PROJECTS/Mol_Feturizer/New_Systems/rnas/1uts

>  <Rbt.Executable>
rbdock ($Id: //depot/dev/client3/rdock/2013.1/src/exe/rbdock.cxx#4 $)

>  <Rbt.Library>
libRbt.so (2013.1, Build901 2013/11/27)

>  <Rbt.Parameter_File>
/export/apps/rDock/src/rDock_2013.1_src/data/scripts/dock_solv.prm

>  <Rbt.Receptor>
prm/pocket_docking_8.prm

>  <SCORE>
-34.5728

>  <SCORE.INTER>
-32.5238

>  <SCORE.INTER.CONST>
1

>  <SCORE.INTER.POLAR>
-1.55178

>  <SCORE.INTER.ROT>
10

>  <SCORE.INTER.SOLV>
11.2617

>  <SCORE.INTER.VDW>
-30.5305

>  <SCORE.INTER.norm>
-1.08413

>  <SCORE.INTRA>
-2.04903

>  <SCORE.INTRA.DIHEDRAL>
-3.57031

>  <SCORE.INTRA.DIHEDRAL.0>
18.0451

>  <SCORE.INTRA.POLAR>
0.196815

>  <SCORE.INTRA.POLAR.0>
-0.196815

>  <SCORE.INTRA.REPUL>
0

>  <SCORE.INTRA.REPUL.0>
0

>  <SCORE.INTRA.SOLV>
-0.0802292

>  <SCORE.INTRA.SOLV.lig_0>
-14.7906

>  <SCORE.INTRA.VDW>
-0.892933

>  <SCORE.INTRA.VDW.0>
-0.411701

>  <SCORE.INTRA.norm>
-0.0683011

>  <SCORE.RESTR>
0

>  <SCORE.RESTR.CAVITY>
0

>  <SCORE.RESTR.norm>
0

>  <SCORE.SYSTEM>
0

>  <SCORE.SYSTEM.CONST>
0

>  <SCORE.SYSTEM.DIHEDRAL>
0

>  <SCORE.SYSTEM.SOLV>
0

>  <SCORE.SYSTEM.norm>
0

>  <SCORE.heavy>
30

>  <SCORE.norm>
-1.15243

>  <RMSD>
5.760

$$$$
1uts_lig
 OpenBabel11021811413D
libRbt.so/2013.1/901 2013/11/27
 30 33  0  0  0  0  0  0  0  0999 V2000
    7.2084   -3.3200   20.2227 N   0  0  0  0  0  0  0  0  0  0  0  0
    5.1031   -3.1452   18.9680 C   0  0  0  0  0  0  0  0  0  0  0  0
    5.1160    1.6119   17.3580 C   0  0  0  0  0  0  0  0  0  0  0  0
    4.0097   -2.1773   18.5068 C   0  0  0  0  0  0  0  0  0  0  0  0
    4.5528   -1.2749   17.5319 O   0  0  0  0  0  0  0  0  0  0  0  0
    6.1683   -2.3773   19.7527 C   0  0  0  0  0  0  0  0  0  0  0  0
    5.7886    2.2270   16.1911 N   0  0  0  0  0  0  0  0  0  0  0  0
    6.9814    2.9898   16.6452 C   0  0  0  0  0  0  0  0  0  0  0  0
    6.5364    4.2409   17.4082 C   0  0  0  0  0  0  0  0  0  0  0  0
    7.7213    4.9104   17.9901 N   0  0  0  0  0  0  0  0  0  0  0  0
    8.2088    4.1213   19.1579 C   0  0  0  0  0  0  0  0  0  0  0  0
    7.3510    6.2906   18.4132 C   0  0  0  0  0  0  0  0  0  0  0  0
    9.4373    4.8158   19.7674 C   0  0  0  0  0  0  0  0  0  0  0  0
    8.5795    6.9857   19.0271 C   0  0  0  0  0  0  0  0  0  0  0  0
    9.0672    6.1958   20.1918 N   0  0  0  0  0  0  0  0  0  0  0  0
    1.2500   -0.0725   16.1618 C   0  0  0  0  0  0  0  0  0  0  0  0
   -2.7971    4.5253   14.3122 N   0  0  0  0  0  0  0  0  0  0  0  0
    1.4743    1.3226   16.0797 C   0  0  0  0  0  0  0  0  0  0  0  0
    2.7293    1.8619   16.4694 C   0  0  0  0  0  0  0  0  0  0  0  0
    3.7620    1.0045   16.9387 C   0  0  0  0  0  0  0  0  0  0  0  0
    3.5281   -0.4001   17.0361 C   0  0  0  0  0  0  0  0  0  0  0  0
    2.2710   -0.9346   16.6417 C   0  0  0  0  0  0  0  0  0  0  0  0
   -3.8205    3.5673   14.4929 C   0  0  0  0  0  0  0  0  0  0  0  0
   -3.2919    2.3481   14.9741 C   0  0  0  0  0  0  0  0  0  0  0  0
   -0.8873    1.6857   15.5597 C   0  0  0  0  0  0  0  0  0  0  0  0
    0.4508    2.1617   15.6174 C   0  0  0  0  0  0  0  0  0  0  0  0
    0.7480    3.4920   15.2121 C   0  0  0  0  0  0  0  0  0  0  0  0
   -0.2919    4.3446   14.7523 C   0  0  0  0  0  0  0  0  0  0  0  0
   -1.6392    3.8672   14.7087 C   0  0  0  0  0  0  0  0  0  0  0  0
   -1.9350    2.5512   15.1087 C   0  0  0  0  0  0  0  0  0  0  0  0
  1  6  1  0  0  0  0
  2  4  1  0  0  0  0
  3  7  1  0  0  0  0
  4  5  1  0  0  0  0
  6  2  1  0  0  0  0
  7  8  1  0  0  0  0
  8  9  1  0  0  0  0
  9 10  1  0  0  0  0
 10 11  1  0  0  0  0
 10 12  1  0  0  0  0
 11 13  1  0  0  0  0
 13 15  1  0  0  0  0
 14 12  1  0  0  0  0
 15 14  1  0  0  0  0
 16 18  2  0  0  0  0
 16 22  1  0  0  0  0
 17 23  1  0  0  0  0
 17 29  1  0  0  0  0
 18 19  1  0  0  0  0
 18 26  1  0  0  0  0
 19 20  2  0  0  0  0
 20  3  1  0  0  0  0
 20 21  1  0  0  0  0
 21  5  1  0  0  0  0
 21 22  2  0  0  0  0
 23 24  2  0  0  0  0
 24 30  1  0  0  0  0
 25 26  2  0  0  0  0
 25 30  1  0  0  0  0
 26 27  1  0  0  0  0
 27 28  2  0  0  0  0
 28 29  1  0  0  0  0
 29 30  2  0  0  0  0
M  END
>  <CHROM.1>
178.64073700,67.40106738,171.17104952,177.15267670,178.76053688,-70.26824101
173.51454355,-73.88875867,16.08010605,-64.54062113,132.97078590,3.65970585
2.10462486,17.13323139,0.01691989,0.40347269,2.98611013

>  <Name>
1uts_lig

>  <RI>
0

>  <Rbt.Current_Directory>
/home/itssahil/PROJECTS/Mol_Feturizer/New_Systems/rnas/1uts

>  <Rbt.Executable>
rbdock ($Id: //depot/dev/client3/rdock/2013.1/src/exe/rbdock.cxx#4 $)

>  <Rbt.Library>
libRbt.so (2013.1, Build901 2013/11/27)

>  <Rbt.Parameter_File>
/export/apps/rDock/src/rDock_2013.1_src/data/scripts/dock_solv.prm

>  <Rbt.Receptor>
prm/pocket_docking_5.prm

>  <SCORE>
-14.4271

>  <SCORE.INTER>
-11.6249

>  <SCORE.INTER.CONST>
1

>  <SCORE.INTER.POLAR>
-0.872697

>  <SCORE.INTER.ROT>
10

>  <SCORE.INTER.SOLV>
6.46557

>  <SCORE.INTER.VDW>
-17.2628

>  <SCORE.INTER.norm>
-0.387498

>  <SCORE.INTRA>
-2.80214

>  <SCORE.INTRA.DIHEDRAL>
-13.0536

>  <SCORE.INTRA.DIHEDRAL.0>
18.0451

>  <SCORE.INTRA.POLAR>
0.196815

>  <SCORE.INTRA.POLAR.0>
-0.196815

>  <SCORE.INTRA.REPUL>
0

>  <SCORE.INTRA.REPUL.0>
0

>  <SCORE.INTRA.SOLV>
-0.588143

>  <SCORE.INTRA.SOLV.lig_0>
-14.7906

>  <SCORE.INTRA.VDW>
3.34958

>  <SCORE.INTRA.VDW.0>
-0.411701

>  <SCORE.INTRA.norm>
-0.0934047

>  <SCORE.RESTR>
0

>  <SCORE.RESTR.CAVITY>
0

>  <SCORE.RESTR.norm>
0

>  <SCORE.SYSTEM>
0

>  <SCORE.SYSTEM.CONST>
0

>  <SCORE.SYSTEM.DIHEDRAL>
0

>  <SCORE.SYSTEM.SOLV>
0

>  <SCORE.SYSTEM.norm>
0

>  <SCORE.heavy>
30

>  <SCORE.norm>
-0.480902

>  <RMSD>
5.779

$$$$
1uts_lig
 OpenBabel11021811413D
libRbt.so/2013.1/901 2013/11/27
 30 33  0  0  0  0  0  0  0  0999 V2000
   -6.3014    0.1031   19.0512 N   0  0  0  0  0  0  0  0  0  0  0  0
   -4.6230    1.7858   18.4279 C   0  0  0  0  0  0  0  0  0  0  0  0
   -0.6827    2.0393   15.7045 C   0  0  0  0  0  0  0  0  0  0  0  0
   -4.1012    2.6473   17.2743 C   0  0  0  0  0  0  0  0  0  0  0  0
   -3.5683    1.7971   16.2482 O   0  0  0  0  0  0  0  0  0  0  0  0
   -5.7266    0.8586   17.9153 C   0  0  0  0  0  0  0  0  0  0  0  0
   -0.5565    0.6093   15.3422 N   0  0  0  0  0  0  0  0  0  0  0  0
    0.8322    0.1470   15.6040 C   0  0  0  0  0  0  0  0  0  0  0  0
    0.8558   -0.7414   16.8513 C   0  0  0  0  0  0  0  0  0  0  0  0
    0.1554   -2.0132   16.5634 N   0  0  0  0  0  0  0  0  0  0  0  0
    0.3131   -2.9358   17.7244 C   0  0  0  0  0  0  0  0  0  0  0  0
    0.7285   -2.6251   15.3314 C   0  0  0  0  0  0  0  0  0  0  0  0
   -0.4099   -4.2595   17.4275 C   0  0  0  0  0  0  0  0  0  0  0  0
    0.0078   -3.9526   15.0351 C   0  0  0  0  0  0  0  0  0  0  0  0
    0.1637   -4.8726   16.1960 N   0  0  0  0  0  0  0  0  0  0  0  0
   -3.6889    4.0051   13.1918 C   0  0  0  0  0  0  0  0  0  0  0  0
   -0.7168    7.1271    8.4029 N   0  0  0  0  0  0  0  0  0  0  0  0
   -2.3113    4.1612   12.9071 C   0  0  0  0  0  0  0  0  0  0  0  0
   -1.3424    3.5219   13.7256 C   0  0  0  0  0  0  0  0  0  0  0  0
   -1.7519    2.7229   14.8283 C   0  0  0  0  0  0  0  0  0  0  0  0
   -3.1410    2.5800   15.1233 C   0  0  0  0  0  0  0  0  0  0  0  0
   -4.1065    3.2198   14.2986 C   0  0  0  0  0  0  0  0  0  0  0  0
   -0.3693    6.0286    7.5842 C   0  0  0  0  0  0  0  0  0  0  0  0
   -0.5591    4.8074    8.2699 C   0  0  0  0  0  0  0  0  0  0  0  0
   -1.4247    4.3372   10.6350 C   0  0  0  0  0  0  0  0  0  0  0  0
   -1.9151    4.9518   11.8192 C   0  0  0  0  0  0  0  0  0  0  0  0
   -2.0095    6.3686   11.8956 C   0  0  0  0  0  0  0  0  0  0  0  0
   -1.6162    7.1684   10.7887 C   0  0  0  0  0  0  0  0  0  0  0  0
   -1.1364    6.5465    9.5936 C   0  0  0  0  0  0  0  0  0  0  0  0
   -1.0418    5.1449    9.5164 C   0  0  0  0  0  0  0  0  0  0  0  0
  1  6  1  0  0  0  0
  2  4  1  0  0  0  0
  3  7  1  0  0  0  0
  4  5  1  0  0  0  0
  6  2  1  0  0  0  0
  7  8  1  0  0  0  0
  8  9  1  0  0  0  0
  9 10  1  0  0  0  0
 10 11  1  0  0  0  0
 10 12  1  0  0  0  0
 11 13  1  0  0  0  0
 13 15  1  0  0  0  0
 14 12  1  0  0  0  0
 15 14  1  0  0  0  0
 16 18  2  0  0  0  0
 16 22  1  0  0  0  0
 17 23  1  0  0  0  0
 17 29  1  0  0  0  0
 18 19  1  0  0  0  0
 18 26  1  0  0  0  0
 19 20  2  0  0  0  0
 20  3  1  0  0  0  0
 20 21  1  0  0  0  0
 21  5  1  0  0  0  0
 21 22  2  0  0  0  0
 23 24  2  0  0  0  0
 24 30  1  0  0  0  0
 25 26  2  0  0  0  0
 25 30  1  0  0  0  0
 26 27  1  0  0  0  0
 27 28  2  0  0  0  0
 28 29  1  0  0  0  0
 29 30  2  0  0  0  0
M  END
>  <CHROM.1>
64.92576269,-60.20948425,150.48777648,176.78427185,-175.62430326,106.28063092
68.75946697,173.64843476,-106.09783020,-101.13673740,109.79509733,-1.68371421
1.86204257,14.27198427,1.56367711,-0.68216145,2.40386596

>  <Name>
1uts_lig

>  <RI>
0

>  <Rbt.Current_Directory>
/home/itssahil/PROJECTS/Mol_Feturizer/New_Systems/rnas/1uts

>  <Rbt.Executable>
rbdock ($Id: //depot/dev/client3/rdock/2013.1/src/exe/rbdock.cxx#4 $)

>  <Rbt.Library>
libRbt.so (2013.1, Build901 2013/11/27)

>  <Rbt.Parameter_File>
/export/apps/rDock/src/rDock_2013.1_src/data/scripts/dock_solv.prm

>  <Rbt.Receptor>
prm/pocket_docking_7.prm

>  <SCORE>
-30.7663

>  <SCORE.INTER>
-31.5737

>  <SCORE.INTER.CONST>
1

>  <SCORE.INTER.POLAR>
-1.12687

>  <SCORE.INTER.ROT>
10

>  <SCORE.INTER.SOLV>
11.1808

>  <SCORE.INTER.VDW>
-31.2865

>  <SCORE.INTER.norm>
-1.05246

>  <SCORE.INTRA>
0.807375

>  <SCORE.INTRA.DIHEDRAL>
-3.15722

>  <SCORE.INTRA.DIHEDRAL.0>
18.0451

>  <SCORE.INTRA.POLAR>
0.196815

>  <SCORE.INTRA.POLAR.0>
-0.196815

>  <SCORE.INTRA.REPUL>
0

>  <SCORE.INTRA.REPUL.0>
0

>  <SCORE.INTRA.SOLV>
-0.260855

>  <SCORE.INTRA.SOLV.lig_0>
-14.7906

>  <SCORE.INTRA.VDW>
1.84724

>  <SCORE.INTRA.VDW.0>
-0.411701

>  <SCORE.INTRA.norm>
0.0269125

>  <SCORE.RESTR>
0

>  <SCORE.RESTR.CAVITY>
0

>  <SCORE.RESTR.norm>
0

>  <SCORE.SYSTEM>
0

>  <SCORE.SYSTEM.CONST>
0

>  <SCORE.SYSTEM.DIHEDRAL>
0

>  <SCORE.SYSTEM.SOLV>
0

>  <SCORE.SYSTEM.norm>
0

>  <SCORE.heavy>
30

>  <SCORE.norm>
-1.02554

>  <RMSD>
5.967

$$$$
1uts_lig
 OpenBabel11021811413D
libRbt.so/2013.1/901 2013/11/27
 30 33  0  0  0  0  0  0  0  0999 V2000
    0.2952    4.5112   15.4221 N   0  0  0  0  0  0  0  0  0  0  0  0
    0.5996    3.7434   17.7361 C   0  0  0  0  0  0  0  0  0  0  0  0
   -3.8815    5.0880   18.9627 C   0  0  0  0  0  0  0  0  0  0  0  0
   -0.9207    3.5740   17.6642 C   0  0  0  0  0  0  0  0  0  0  0  0
   -1.5168    4.8046   17.2282 O   0  0  0  0  0  0  0  0  0  0  0  0
    1.1822    3.7397   16.3217 C   0  0  0  0  0  0  0  0  0  0  0  0
   -4.1733    3.9272   19.8343 N   0  0  0  0  0  0  0  0  0  0  0  0
   -3.4782    4.0928   21.1383 C   0  0  0  0  0  0  0  0  0  0  0  0
   -1.9788    3.8350   20.9623 C   0  0  0  0  0  0  0  0  0  0  0  0
   -1.3156    3.8632   22.2853 N   0  0  0  0  0  0  0  0  0  0  0  0
    0.1543    4.0285   22.0956 C   0  0  0  0  0  0  0  0  0  0  0  0
   -1.6068    2.5947   23.0112 C   0  0  0  0  0  0  0  0  0  0  0  0
    0.8472    4.0544   23.4677 C   0  0  0  0  0  0  0  0  0  0  0  0
   -0.9105    2.6178   24.3838 C   0  0  0  0  0  0  0  0  0  0  0  0
    0.5572    2.7854   24.1937 N   0  0  0  0  0  0  0  0  0  0  0  0
   -4.2222    3.9314   14.7484 C   0  0  0  0  0  0  0  0  0  0  0  0
  -10.5293    3.0666   13.5068 N   0  0  0  0  0  0  0  0  0  0  0  0
   -5.3819    4.0391   15.5527 C   0  0  0  0  0  0  0  0  0  0  0  0
   -5.2643    4.4138   16.9177 C   0  0  0  0  0  0  0  0  0  0  0  0
   -3.9858    4.6843   17.4781 C   0  0  0  0  0  0  0  0  0  0  0  0
   -2.8163    4.5593   16.6695 C   0  0  0  0  0  0  0  0  0  0  0  0
   -2.9404    4.1868   15.3030 C   0  0  0  0  0  0  0  0  0  0  0  0
  -11.2479    3.3899   14.6802 C   0  0  0  0  0  0  0  0  0  0  0  0
  -10.3696    3.7501   15.7273 C   0  0  0  0  0  0  0  0  0  0  0  0
   -7.8137    3.9200   15.7795 C   0  0  0  0  0  0  0  0  0  0  0  0
   -6.6389    3.7694   14.9936 C   0  0  0  0  0  0  0  0  0  0  0  0
   -6.7416    3.3518   13.6381 C   0  0  0  0  0  0  0  0  0  0  0  0
   -8.0171    3.0878   13.0698 C   0  0  0  0  0  0  0  0  0  0  0  0
   -9.1981    3.2536   13.8590 C   0  0  0  0  0  0  0  0  0  0  0  0
   -9.0984    3.6661   15.2003 C   0  0  0  0  0  0  0  0  0  0  0  0
  1  6  1  0  0  0  0
  2  4  1  0  0  0  0
  3  7  1  0  0  0  0
  4  5  1  0  0  0  0
  6  2  1  0  0  0  0
  7  8  1  0  0  0  0
  8  9  1  0  0  0  0
  9 10  1  0  0  0  0
 10 11  1  0  0  0  0
 10 12  1  0  0  0  0
 11 13  1  0  0  0  0
 13 15  1  0  0  0  0
 14 12  1  0  0  0  0
 15 14  1  0  0  0  0
 16 18  2  0  0  0  0
 16 22  1  0  0  0  0
 17 23  1  0  0  0  0
 17 29  1  0  0  0  0
 18 19  1  0  0  0  0
 18 26  1  0  0  0  0
 19 20  2  0  0  0  0
 20  3  1  0  0  0  0
 20 21  1  0  0  0  0
 21  5  1  0  0  0  0
 21 22  2  0  0  0  0
 23 24  2  0  0  0  0
 24 30  1  0  0  0  0
 25 26  2  0  0  0  0
 25 30  1  0  0  0  0
 26 27  1  0  0  0  0
 27 28  2  0  0  0  0
 28 29  1  0  0  0  0
 29 30  2  0  0  0  0
M  END
>  <CHROM.1>
157.01408313,-74.90099391,153.19113244,158.06149277,40.39346543,-74.11956210
-174.18148311,-162.95842977,-177.79112770,71.08487931,94.77514140,-3.83715429
3.80892194,17.86428355,-0.72481387,-0.08508390,-1.47846999

>  <Name>
1uts_lig

>  <RI>
0

>  <Rbt.Current_Directory>
/home/itssahil/PROJECTS/Mol_Feturizer/New_Systems/rnas/1uts

>  <Rbt.Executable>
rbdock ($Id: //depot/dev/client3/rdock/2013.1/src/exe/rbdock.cxx#4 $)

>  <Rbt.Library>
libRbt.so (2013.1, Build901 2013/11/27)

>  <Rbt.Parameter_File>
/export/apps/rDock/src/rDock_2013.1_src/data/scripts/dock_solv.prm

>  <Rbt.Receptor>
prm/pocket_docking_7.prm

>  <SCORE>
-29.9739

>  <SCORE.INTER>
-30.4459

>  <SCORE.INTER.CONST>
1

>  <SCORE.INTER.POLAR>
-2.18348

>  <SCORE.INTER.ROT>
10

>  <SCORE.INTER.SOLV>
8.7316

>  <SCORE.INTER.VDW>
-26.1962

>  <SCORE.INTER.norm>
-1.01486

>  <SCORE.INTRA>
0.471957

>  <SCORE.INTRA.DIHEDRAL>
-4.3926

>  <SCORE.INTRA.DIHEDRAL.0>
18.0451

>  <SCORE.INTRA.POLAR>
-0.0498366

>  <SCORE.INTRA.POLAR.0>
-0.196815

>  <SCORE.INTRA.REPUL>
0

>  <SCORE.INTRA.REPUL.0>
0

>  <SCORE.INTRA.SOLV>
0.325987

>  <SCORE.INTRA.SOLV.lig_0>
-14.7906

>  <SCORE.INTRA.VDW>
2.67471

>  <SCORE.INTRA.VDW.0>
-0.411701

>  <SCORE.INTRA.norm>
0.0157319

>  <SCORE.RESTR>
0

>  <SCORE.RESTR.CAVITY>
0

>  <SCORE.RESTR.norm>
0

>  <SCORE.SYSTEM>
0

>  <SCORE.SYSTEM.CONST>
0

>  <SCORE.SYSTEM.DIHEDRAL>
0

>  <SCORE.SYSTEM.SOLV>
0

>  <SCORE.SYSTEM.norm>
0

>  <SCORE.heavy>
30

>  <SCORE.norm>
-0.99913

>  <RMSD>
6.089

$$$$
1uts_lig
 OpenBabel11021811413D
libRbt.so/2013.1/901 2013/11/27
 30 33  0  0  0  0  0  0  0  0999 V2000
   -5.7056   -0.2218   17.6493 N   0  0  0  0  0  0  0  0  0  0  0  0
   -5.0384    2.0429   18.3298 C   0  0  0  0  0  0  0  0  0  0  0  0
   -0.7647    4.4053   16.6566 C   0  0  0  0  0  0  0  0  0  0  0  0
   -4.6482    2.5115   16.9250 C   0  0  0  0  0  0  0  0  0  0  0  0
   -3.4994    3.3674   17.0105 O   0  0  0  0  0  0  0  0  0  0  0  0
   -6.1955    1.0470   18.2339 C   0  0  0  0  0  0  0  0  0  0  0  0
    0.6275    4.3653   16.1542 N   0  0  0  0  0  0  0  0  0  0  0  0
    1.5497    4.0022   17.2626 C   0  0  0  0  0  0  0  0  0  0  0  0
    2.4914    2.8835   16.8073 C   0  0  0  0  0  0  0  0  0  0  0  0
    3.8297    3.4501   16.5264 N   0  0  0  0  0  0  0  0  0  0  0  0
    4.4522    3.8999   17.8046 C   0  0  0  0  0  0  0  0  0  0  0  0
    3.6932    4.5957   15.5830 C   0  0  0  0  0  0  0  0  0  0  0  0
    5.8410    4.4926   17.5163 C   0  0  0  0  0  0  0  0  0  0  0  0
    5.0829    5.1924   15.2964 C   0  0  0  0  0  0  0  0  0  0  0  0
    5.7050    5.6392   16.5738 N   0  0  0  0  0  0  0  0  0  0  0  0
   -3.5693    4.0696   13.3046 C   0  0  0  0  0  0  0  0  0  0  0  0
   -0.7503    6.0029    7.8686 N   0  0  0  0  0  0  0  0  0  0  0  0
   -2.2699    4.5904   13.0958 C   0  0  0  0  0  0  0  0  0  0  0  0
   -1.3662    4.6969   14.1864 C   0  0  0  0  0  0  0  0  0  0  0  0
   -1.7615    4.2791   15.4868 C   0  0  0  0  0  0  0  0  0  0  0  0
   -3.0778    3.7695   15.6984 C   0  0  0  0  0  0  0  0  0  0  0  0
   -3.9771    3.6623   14.6022 C   0  0  0  0  0  0  0  0  0  0  0  0
   -0.5059    4.6929    7.3975 C   0  0  0  0  0  0  0  0  0  0  0  0
   -0.7266    3.7397    8.4175 C   0  0  0  0  0  0  0  0  0  0  0  0
   -1.4934    4.0374   10.8439 C   0  0  0  0  0  0  0  0  0  0  0  0
   -1.8878    5.0015   11.8111 C   0  0  0  0  0  0  0  0  0  0  0  0
   -1.9006    6.3823   11.4711 C   0  0  0  0  0  0  0  0  0  0  0  0
   -1.5219    6.7970   10.1657 C   0  0  0  0  0  0  0  0  0  0  0  0
   -1.1390    5.8235    9.1907 C   0  0  0  0  0  0  0  0  0  0  0  0
   -1.1251    4.4570    9.5253 C   0  0  0  0  0  0  0  0  0  0  0  0
  1  6  1  0  0  0  0
  2  4  1  0  0  0  0
  3  7  1  0  0  0  0
  4  5  1  0  0  0  0
  6  2  1  0  0  0  0
  7  8  1  0  0  0  0
  8  9  1  0  0  0  0
  9 10  1  0  0  0  0
 10 11  1  0  0  0  0
 10 12  1  0  0  0  0
 11 13  1  0  0  0  0
 13 15  1  0  0  0  0
 14 12  1  0  0  0  0
 15 14  1  0  0  0  0
 16 18  2  0  0  0  0
 16 22  1  0  0  0  0
 17 23  1  0  0  0  0
 17 29  1  0  0  0  0
 18 19  1  0  0  0  0
 18 26  1  0  0  0  0
 19 20  2  0  0  0  0
 20  3  1  0  0  0  0
 20 21  1  0  0  0  0
 21  5  1  0  0  0  0
 21 22  2  0  0  0  0
 23 24  2  0  0  0  0
 24 30  1  0  0  0  0
 25 26  2  0  0  0  0
 25 30  1  0  0  0  0
 26 27  1  0  0  0  0
 27 28  2  0  0  0  0
 28 29  1  0  0  0  0
 29 30  2  0  0  0  0
M  END
>  <CHROM.1>
-58.48771875,-175.73538051,-159.94900812,177.33814764,70.58160353,131.30922707
103.90536716,68.35431458,-79.19234935,-26.01007485,-161.39984569,-0.59387411
4.07193615,14.39988395,2.54017362,-0.23446733,-1.27626094

>  <Name>
1uts_lig

>  <RI>
0

>  <Rbt.Current_Directory>
/home/itssahil/PROJECTS/Mol_Feturizer/New_Systems/rnas/1uts

>  <Rbt.Executable>
rbdock ($Id: //depot/dev/client3/rdock/2013.1/src/exe/rbdock.cxx#4 $)

>  <Rbt.Library>
libRbt.so (2013.1, Build901 2013/11/27)

>  <Rbt.Parameter_File>
/export/apps/rDock/src/rDock_2013.1_src/data/scripts/dock_solv.prm

>  <Rbt.Receptor>
prm/pocket_docking_6.prm

>  <SCORE>
-26.9379

>  <SCORE.INTER>
-32.6889

>  <SCORE.INTER.CONST>
1

>  <SCORE.INTER.POLAR>
-1.26777

>  <SCORE.INTER.ROT>
10

>  <SCORE.INTER.SOLV>
8.66582

>  <SCORE.INTER.VDW>
-30.722

>  <SCORE.INTER.norm>
-1.08963

>  <SCORE.INTRA>
5.74921

>  <SCORE.INTRA.DIHEDRAL>
-2.73144

>  <SCORE.INTRA.DIHEDRAL.0>
18.0451

>  <SCORE.INTRA.POLAR>
0.196815

>  <SCORE.INTRA.POLAR.0>
-0.196815

>  <SCORE.INTRA.REPUL>
0

>  <SCORE.INTRA.REPUL.0>
0

>  <SCORE.INTRA.SOLV>
-0.380132

>  <SCORE.INTRA.SOLV.lig_0>
-14.7906

>  <SCORE.INTRA.VDW>
6.63583

>  <SCORE.INTRA.VDW.0>
-0.411701

>  <SCORE.INTRA.norm>
0.19164

>  <SCORE.RESTR>
0.0017874

>  <SCORE.RESTR.CAVITY>
0.0017874

>  <SCORE.RESTR.norm>
5.958e-05

>  <SCORE.SYSTEM>
0

>  <SCORE.SYSTEM.CONST>
0

>  <SCORE.SYSTEM.DIHEDRAL>
0

>  <SCORE.SYSTEM.SOLV>
0

>  <SCORE.SYSTEM.norm>
0

>  <SCORE.heavy>
30

>  <SCORE.norm>
-0.897931

>  <RMSD>
6.207

$$$$
1uts_lig
 OpenBabel11021811413D
libRbt.so/2013.1/901 2013/11/27
 30 33  0  0  0  0  0  0  0  0999 V2000
    5.0354   -0.9470   16.8447 N   0  0  0  0  0  0  0  0  0  0  0  0
    3.7972    0.9750   17.7448 C   0  0  0  0  0  0  0  0  0  0  0  0
    1.5849    4.3134   16.6915 C   0  0  0  0  0  0  0  0  0  0  0  0
    2.4169    0.6954   17.1433 C   0  0  0  0  0  0  0  0  0  0  0  0
    2.2242    1.5246   15.9878 O   0  0  0  0  0  0  0  0  0  0  0  0
    4.8828    0.5234   16.7661 C   0  0  0  0  0  0  0  0  0  0  0  0
    1.0149    5.2792   17.6582 N   0  0  0  0  0  0  0  0  0  0  0  0
    2.0855    5.7708   18.5654 C   0  0  0  0  0  0  0  0  0  0  0  0
    1.4584    6.4608   19.7804 C   0  0  0  0  0  0  0  0  0  0  0  0
    0.6891    7.6434   19.3325 N   0  0  0  0  0  0  0  0  0  0  0  0
    1.6323    8.7570   19.0255 C   0  0  0  0  0  0  0  0  0  0  0  0
   -0.2627    8.0490   20.4052 C   0  0  0  0  0  0  0  0  0  0  0  0
    0.8365    9.9885   18.5636 C   0  0  0  0  0  0  0  0  0  0  0  0
   -1.0575    9.2844   19.9453 C   0  0  0  0  0  0  0  0  0  0  0  0
   -0.1147   10.3953   19.6365 N   0  0  0  0  0  0  0  0  0  0  0  0
   -1.5063    1.4734   15.4291 C   0  0  0  0  0  0  0  0  0  0  0  0
   -7.2735    4.2509   15.3392 N   0  0  0  0  0  0  0  0  0  0  0  0
   -1.8576    2.7999   15.7760 C   0  0  0  0  0  0  0  0  0  0  0  0
   -0.8510    3.7149   16.1847 C   0  0  0  0  0  0  0  0  0  0  0  0
    0.5089    3.3037   16.2435 C   0  0  0  0  0  0  0  0  0  0  0  0
    0.8588    1.9611   15.9089 C   0  0  0  0  0  0  0  0  0  0  0  0
   -0.1527    1.0504   15.4975 C   0  0  0  0  0  0  0  0  0  0  0  0
   -7.4958    3.7113   14.0519 C   0  0  0  0  0  0  0  0  0  0  0  0
   -6.3140    3.1335   13.5352 C   0  0  0  0  0  0  0  0  0  0  0  0
   -3.9764    2.9128   14.5604 C   0  0  0  0  0  0  0  0  0  0  0  0
   -3.2007    3.1977   15.7170 C   0  0  0  0  0  0  0  0  0  0  0  0
   -3.7911    3.8802   16.8160 C   0  0  0  0  0  0  0  0  0  0  0  0
   -5.1551    4.2747   16.7587 C   0  0  0  0  0  0  0  0  0  0  0  0
   -5.9367    3.9743   15.5993 C   0  0  0  0  0  0  0  0  0  0  0  0
   -5.3541    3.2997   14.5108 C   0  0  0  0  0  0  0  0  0  0  0  0
  1  6  1  0  0  0  0
  2  4  1  0  0  0  0
  3  7  1  0  0  0  0
  4  5  1  0  0  0  0
  6  2  1  0  0  0  0
  7  8  1  0  0  0  0
  8  9  1  0  0  0  0
  9 10  1  0  0  0  0
 10 11  1  0  0  0  0
 10 12  1  0  0  0  0
 11 13  1  0  0  0  0
 13 15  1  0  0  0  0
 14 12  1  0  0  0  0
 15 14  1  0  0  0  0
 16 18  2  0  0  0  0
 16 22  1  0  0  0  0
 17 23  1  0  0  0  0
 17 29  1  0  0  0  0
 18 19  1  0  0  0  0
 18 26  1  0  0  0  0
 19 20  2  0  0  0  0
 20  3  1  0  0  0  0
 20 21  1  0  0  0  0
 21  5  1  0  0  0  0
 21 22  2  0  0  0  0
 23 24  2  0  0  0  0
 24 30  1  0  0  0  0
 25 26  2  0  0  0  0
 25 30  1  0  0  0  0
 26 27  1  0  0  0  0
 27 28  2  0  0  0  0
 28 29  1  0  0  0  0
 29 30  2  0  0  0  0
M  END
>  <CHROM.1>
-165.49811091,-66.10293980,151.93776105,-143.17026402,-78.40091031,-164.91887413
-62.69095398,-77.29000352,-48.55212197,31.00191300,105.18072088,-0.68578852
4.23862932,16.94944546,-0.17889935,0.29337570,-2.69794418

>  <Name>
1uts_lig

>  <RI>
0

>  <Rbt.Current_Directory>
/home/itssahil/PROJECTS/Mol_Feturizer/New_Systems/rnas/1uts

>  <Rbt.Executable>
rbdock ($Id: //depot/dev/client3/rdock/2013.1/src/exe/rbdock.cxx#4 $)

>  <Rbt.Library>
libRbt.so (2013.1, Build901 2013/11/27)

>  <Rbt.Parameter_File>
/export/apps/rDock/src/rDock_2013.1_src/data/scripts/dock_solv.prm

>  <Rbt.Receptor>
prm/pocket_docking_7.prm

>  <SCORE>
-26.1075

>  <SCORE.INTER>
-26.4947

>  <SCORE.INTER.CONST>
1

>  <SCORE.INTER.POLAR>
-1.65054

>  <SCORE.INTER.ROT>
10

>  <SCORE.INTER.SOLV>
10.6346

>  <SCORE.INTER.VDW>
-25.9729

>  <SCORE.INTER.norm>
-0.883158

>  <SCORE.INTRA>
0.387256

>  <SCORE.INTRA.DIHEDRAL>
-0.574648

>  <SCORE.INTRA.DIHEDRAL.0>
18.0451

>  <SCORE.INTRA.POLAR>
0.196815

>  <SCORE.INTRA.POLAR.0>
-0.196815

>  <SCORE.INTRA.REPUL>
0

>  <SCORE.INTRA.REPUL.0>
0

>  <SCORE.INTRA.SOLV>
-0.184756

>  <SCORE.INTRA.SOLV.lig_0>
-14.7906

>  <SCORE.INTRA.VDW>
0.0977864

>  <SCORE.INTRA.VDW.0>
-0.411701

>  <SCORE.INTRA.norm>
0.0129085

>  <SCORE.RESTR>
0

>  <SCORE.RESTR.CAVITY>
0

>  <SCORE.RESTR.norm>
0

>  <SCORE.SYSTEM>
0

>  <SCORE.SYSTEM.CONST>
0

>  <SCORE.SYSTEM.DIHEDRAL>
0

>  <SCORE.SYSTEM.SOLV>
0

>  <SCORE.SYSTEM.norm>
0

>  <SCORE.heavy>
30

>  <SCORE.norm>
-0.87025

>  <RMSD>
6.232

$$$$
1uts_lig
 OpenBabel11021811413D
libRbt.so/2013.1/901 2013/11/27
 30 33  0  0  0  0  0  0  0  0999 V2000
   -1.1448    7.7957   10.5432 N   0  0  0  0  0  0  0  0  0  0  0  0
   -1.5264    5.5415   11.4431 C   0  0  0  0  0  0  0  0  0  0  0  0
   -1.8885    2.6855   14.9674 C   0  0  0  0  0  0  0  0  0  0  0  0
   -1.5151    4.0904   10.9537 C   0  0  0  0  0  0  0  0  0  0  0  0
   -1.6188    3.2072   12.0802 O   0  0  0  0  0  0  0  0  0  0  0  0
   -1.7591    6.4795   10.2573 C   0  0  0  0  0  0  0  0  0  0  0  0
   -1.7489    1.2130   15.0342 N   0  0  0  0  0  0  0  0  0  0  0  0
   -0.5006    0.8607   15.7610 C   0  0  0  0  0  0  0  0  0  0  0  0
    0.0007   -0.5095   15.2952 C   0  0  0  0  0  0  0  0  0  0  0  0
    0.4653   -1.2879   16.4653 N   0  0  0  0  0  0  0  0  0  0  0  0
    1.8422   -0.8489   16.8334 C   0  0  0  0  0  0  0  0  0  0  0  0
    0.4548   -2.7396   16.1288 C   0  0  0  0  0  0  0  0  0  0  0  0
    2.3297   -1.6581   18.0462 C   0  0  0  0  0  0  0  0  0  0  0  0
    0.9464   -3.5507   17.3413 C   0  0  0  0  0  0  0  0  0  0  0  0
    2.3206   -3.1100   17.7098 N   0  0  0  0  0  0  0  0  0  0  0  0
   -5.3274    3.7735   12.4765 C   0  0  0  0  0  0  0  0  0  0  0  0
  -10.7307    3.7592   15.9140 N   0  0  0  0  0  0  0  0  0  0  0  0
   -5.5024    3.5133   13.8567 C   0  0  0  0  0  0  0  0  0  0  0  0
   -4.3839    3.1608   14.6580 C   0  0  0  0  0  0  0  0  0  0  0  0
   -3.0883    3.0714   14.0789 C   0  0  0  0  0  0  0  0  0  0  0  0
   -2.9167    3.3183   12.6837 C   0  0  0  0  0  0  0  0  0  0  0  0
   -4.0395    3.6737   11.8871 C   0  0  0  0  0  0  0  0  0  0  0  0
  -11.4050    3.4195   14.7192 C   0  0  0  0  0  0  0  0  0  0  0  0
  -10.4893    3.2237   13.6605 C   0  0  0  0  0  0  0  0  0  0  0  0
   -7.9312    3.3583   13.6184 C   0  0  0  0  0  0  0  0  0  0  0  0
   -6.7831    3.6019   14.4203 C   0  0  0  0  0  0  0  0  0  0  0  0
   -6.9356    3.9286   15.7959 C   0  0  0  0  0  0  0  0  0  0  0  0
   -8.2339    4.0091   16.3682 C   0  0  0  0  0  0  0  0  0  0  0  0
   -9.3863    3.7498   15.5622 C   0  0  0  0  0  0  0  0  0  0  0  0
   -9.2374    3.4270   14.2009 C   0  0  0  0  0  0  0  0  0  0  0  0
  1  6  1  0  0  0  0
  2  4  1  0  0  0  0
  3  7  1  0  0  0  0
  4  5  1  0  0  0  0
  6  2  1  0  0  0  0
  7  8  1  0  0  0  0
  8  9  1  0  0  0  0
  9 10  1  0  0  0  0
 10 11  1  0  0  0  0
 10 12  1  0  0  0  0
 11 13  1  0  0  0  0
 13 15  1  0  0  0  0
 14 12  1  0  0  0  0
 15 14  1  0  0  0  0
 16 18  2  0  0  0  0
 16 22  1  0  0  0  0
 17 23  1  0  0  0  0
 17 29  1  0  0  0  0
 18 19  1  0  0  0  0
 18 26  1  0  0  0  0
 19 20  2  0  0  0  0
 20  3  1  0  0  0  0
 20 21  1  0  0  0  0
 21  5  1  0  0  0  0
 21 22  2  0  0  0  0
 23 24  2  0  0  0  0
 24 30  1  0  0  0  0
 25 26  2  0  0  0  0
 25 30  1  0  0  0  0
 26 27  1  0  0  0  0
 27 28  2  0  0  0  0
 28 29  1  0  0  0  0
 29 30  2  0  0  0  0
M  END
>  <CHROM.1>
80.41743536,-166.32441180,173.47331471,68.11809388,-152.71625067,-153.49639949
-138.24866912,-80.55219003,27.92772177,87.15146388,-150.88042202,-3.45397591
2.32227064,14.43065269,-2.59577110,-0.19481241,2.41730515

>  <Name>
1uts_lig

>  <RI>
0

>  <Rbt.Current_Directory>
/home/itssahil/PROJECTS/Mol_Feturizer/New_Systems/rnas/1uts

>  <Rbt.Executable>
rbdock ($Id: //depot/dev/client3/rdock/2013.1/src/exe/rbdock.cxx#4 $)

>  <Rbt.Library>
libRbt.so (2013.1, Build901 2013/11/27)

>  <Rbt.Parameter_File>
/export/apps/rDock/src/rDock_2013.1_src/data/scripts/dock_solv.prm

>  <Rbt.Receptor>
prm/pocket_docking_6.prm

>  <SCORE>
-48.7235

>  <SCORE.INTER>
-51.1348

>  <SCORE.INTER.CONST>
1

>  <SCORE.INTER.POLAR>
-4.02654

>  <SCORE.INTER.ROT>
10

>  <SCORE.INTER.SOLV>
14.305

>  <SCORE.INTER.VDW>
-35.7031

>  <SCORE.INTER.norm>
-1.70449

>  <SCORE.INTRA>
2.29377

>  <SCORE.INTRA.DIHEDRAL>
-3.8883

>  <SCORE.INTRA.DIHEDRAL.0>
18.0451

>  <SCORE.INTRA.POLAR>
0.196815

>  <SCORE.INTRA.POLAR.0>
-0.196815

>  <SCORE.INTRA.REPUL>
0

>  <SCORE.INTRA.REPUL.0>
0

>  <SCORE.INTRA.SOLV>
-0.601194

>  <SCORE.INTRA.SOLV.lig_0>
-14.7906

>  <SCORE.INTRA.VDW>
3.86934

>  <SCORE.INTRA.VDW.0>
-0.411701

>  <SCORE.INTRA.norm>
0.0764588

>  <SCORE.RESTR>
0.117488

>  <SCORE.RESTR.CAVITY>
0.117488

>  <SCORE.RESTR.norm>
0.00391627

>  <SCORE.SYSTEM>
0

>  <SCORE.SYSTEM.CONST>
0

>  <SCORE.SYSTEM.DIHEDRAL>
0

>  <SCORE.SYSTEM.SOLV>
0

>  <SCORE.SYSTEM.norm>
0

>  <SCORE.heavy>
30

>  <SCORE.norm>
-1.62412

>  <RMSD>
6.265

$$$$
1uts_lig
 OpenBabel11021811413D
libRbt.so/2013.1/901 2013/11/27
 30 33  0  0  0  0  0  0  0  0999 V2000
   -6.5503   -1.3066   16.9121 N   0  0  0  0  0  0  0  0  0  0  0  0
   -5.2385    0.6137   17.7049 C   0  0  0  0  0  0  0  0  0  0  0  0
   -1.8144    2.4101   15.4466 C   0  0  0  0  0  0  0  0  0  0  0  0
   -4.7909    1.0401   16.3038 C   0  0  0  0  0  0  0  0  0  0  0  0
   -4.6444    2.4673   16.2645 O   0  0  0  0  0  0  0  0  0  0  0  0
   -5.3975   -0.9071   17.7505 C   0  0  0  0  0  0  0  0  0  0  0  0
   -1.0048    1.3583   14.7907 N   0  0  0  0  0  0  0  0  0  0  0  0
   -0.4865    0.4134   15.8152 C   0  0  0  0  0  0  0  0  0  0  0  0
    0.4043   -0.6378   15.1465 C   0  0  0  0  0  0  0  0  0  0  0  0
    0.3563   -1.8936   15.9287 N   0  0  0  0  0  0  0  0  0  0  0  0
    1.4425   -1.8790   16.9504 C   0  0  0  0  0  0  0  0  0  0  0  0
    0.5224   -3.0548   15.0095 C   0  0  0  0  0  0  0  0  0  0  0  0
    1.3983   -3.1836   17.7623 C   0  0  0  0  0  0  0  0  0  0  0  0
    0.4820   -4.3617   15.8219 C   0  0  0  0  0  0  0  0  0  0  0  0
    1.5656   -4.3454   16.8437 N   0  0  0  0  0  0  0  0  0  0  0  0
   -4.9823    3.7774   12.7430 C   0  0  0  0  0  0  0  0  0  0  0  0
   -2.1204    5.5501    7.1973 N   0  0  0  0  0  0  0  0  0  0  0  0
   -3.6324    3.7824   12.3175 C   0  0  0  0  0  0  0  0  0  0  0  0
   -2.6108    3.3385   13.1988 C   0  0  0  0  0  0  0  0  0  0  0  0
   -2.9399    2.8861   14.5061 C   0  0  0  0  0  0  0  0  0  0  0  0
   -4.3000    2.8973   14.9388 C   0  0  0  0  0  0  0  0  0  0  0  0
   -5.3188    3.3399   14.0512 C   0  0  0  0  0  0  0  0  0  0  0  0
   -0.7387    5.6884    7.4610 C   0  0  0  0  0  0  0  0  0  0  0  0
   -0.4451    5.3586    8.8036 C   0  0  0  0  0  0  0  0  0  0  0  0
   -1.9724    4.5618   10.7000 C   0  0  0  0  0  0  0  0  0  0  0  0
   -3.3154    4.2312   11.0277 C   0  0  0  0  0  0  0  0  0  0  0  0
   -4.3349    4.3497   10.0434 C   0  0  0  0  0  0  0  0  0  0  0  0
   -4.0108    4.7959    8.7337 C   0  0  0  0  0  0  0  0  0  0  0  0
   -2.6564    5.1145    8.4032 C   0  0  0  0  0  0  0  0  0  0  0  0
   -1.6465    4.9984    9.3758 C   0  0  0  0  0  0  0  0  0  0  0  0
  1  6  1  0  0  0  0
  2  4  1  0  0  0  0
  3  7  1  0  0  0  0
  4  5  1  0  0  0  0
  6  2  1  0  0  0  0
  7  8  1  0  0  0  0
  8  9  1  0  0  0  0
  9 10  1  0  0  0  0
 10 11  1  0  0  0  0
 10 12  1  0  0  0  0
 11 13  1  0  0  0  0
 13 15  1  0  0  0  0
 14 12  1  0  0  0  0
 15 14  1  0  0  0  0
 16 18  2  0  0  0  0
 16 22  1  0  0  0  0
 17 23  1  0  0  0  0
 17 29  1  0  0  0  0
 18 19  1  0  0  0  0
 18 26  1  0  0  0  0
 19 20  2  0  0  0  0
 20  3  1  0  0  0  0
 20 21  1  0  0  0  0
 21  5  1  0  0  0  0
 21 22  2  0  0  0  0
 23 24  2  0  0  0  0
 24 30  1  0  0  0  0
 25 26  2  0  0  0  0
 25 30  1  0  0  0  0
 26 27  1  0  0  0  0
 27 28  2  0  0  0  0
 28 29  1  0  0  0  0
 29 30  2  0  0  0  0
M  END
>  <CHROM.1>
-172.77667134,179.93024725,-148.61393965,-176.68125626,-68.44252635,-177.39856857
-151.42700968,-90.51202679,164.12989519,-54.15794432,-84.44829874,-2.26794822
1.54244950,13.75255698,1.36787382,-0.43684809,2.25835843

>  <Name>
1uts_lig

>  <RI>
0

>  <Rbt.Current_Directory>
/home/itssahil/PROJECTS/Mol_Feturizer/New_Systems/rnas/1uts

>  <Rbt.Executable>
rbdock ($Id: //depot/dev/client3/rdock/2013.1/src/exe/rbdock.cxx#4 $)

>  <Rbt.Library>
libRbt.so (2013.1, Build901 2013/11/27)

>  <Rbt.Parameter_File>
/export/apps/rDock/src/rDock_2013.1_src/data/scripts/dock_solv.prm

>  <Rbt.Receptor>
prm/pocket_docking_7.prm

>  <SCORE>
-31.2408

>  <SCORE.INTER>
-29.7479

>  <SCORE.INTER.CONST>
1

>  <SCORE.INTER.POLAR>
-1.60183

>  <SCORE.INTER.ROT>
10

>  <SCORE.INTER.SOLV>
9.92869

>  <SCORE.INTER.VDW>
-28.0687

>  <SCORE.INTER.norm>
-0.991596

>  <SCORE.INTRA>
-1.49295

>  <SCORE.INTRA.DIHEDRAL>
-5.37172

>  <SCORE.INTRA.DIHEDRAL.0>
18.0451

>  <SCORE.INTRA.POLAR>
0.196815

>  <SCORE.INTRA.POLAR.0>
-0.196815

>  <SCORE.INTRA.REPUL>
0

>  <SCORE.INTRA.REPUL.0>
0

>  <SCORE.INTRA.SOLV>
-0.52445

>  <SCORE.INTRA.SOLV.lig_0>
-14.7906

>  <SCORE.INTRA.VDW>
0.785967

>  <SCORE.INTRA.VDW.0>
-0.411701

>  <SCORE.INTRA.norm>
-0.0497649

>  <SCORE.RESTR>
0

>  <SCORE.RESTR.CAVITY>
0

>  <SCORE.RESTR.norm>
0

>  <SCORE.SYSTEM>
0

>  <SCORE.SYSTEM.CONST>
0

>  <SCORE.SYSTEM.DIHEDRAL>
0

>  <SCORE.SYSTEM.SOLV>
0

>  <SCORE.SYSTEM.norm>
0

>  <SCORE.heavy>
30

>  <SCORE.norm>
-1.04136

>  <RMSD>
6.313

$$$$
1uts_lig
 OpenBabel11021811413D
libRbt.so/2013.1/901 2013/11/27
 30 33  0  0  0  0  0  0  0  0999 V2000
    1.6492    4.5637   15.4350 N   0  0  0  0  0  0  0  0  0  0  0  0
   -0.2424    3.0183   15.1686 C   0  0  0  0  0  0  0  0  0  0  0  0
   -3.9463    0.7533   16.5739 C   0  0  0  0  0  0  0  0  0  0  0  0
   -1.7243    3.1545   15.5297 C   0  0  0  0  0  0  0  0  0  0  0  0
   -2.5130    2.4015   14.5965 O   0  0  0  0  0  0  0  0  0  0  0  0
    0.6023    3.8140   16.1654 C   0  0  0  0  0  0  0  0  0  0  0  0
   -3.6218    1.2348   17.9359 N   0  0  0  0  0  0  0  0  0  0  0  0
   -2.4952    0.4400   18.4928 C   0  0  0  0  0  0  0  0  0  0  0  0
   -2.9590   -0.9934   18.7680 C   0  0  0  0  0  0  0  0  0  0  0  0
   -1.7783   -1.8621   18.9736 N   0  0  0  0  0  0  0  0  0  0  0  0
   -2.1416   -3.2715   18.6488 C   0  0  0  0  0  0  0  0  0  0  0  0
   -1.3264   -1.7547   20.3896 C   0  0  0  0  0  0  0  0  0  0  0  0
   -0.9186   -4.1776   18.8650 C   0  0  0  0  0  0  0  0  0  0  0  0
   -0.1040   -2.6644   20.6082 C   0  0  0  0  0  0  0  0  0  0  0  0
   -0.4669   -4.0714   20.2813 N   0  0  0  0  0  0  0  0  0  0  0  0
   -5.9602    3.9015   14.2831 C   0  0  0  0  0  0  0  0  0  0  0  0
  -12.2278    3.9579   15.7071 N   0  0  0  0  0  0  0  0  0  0  0  0
   -6.6890    3.1197   15.2109 C   0  0  0  0  0  0  0  0  0  0  0  0
   -6.0304    2.1009   15.9496 C   0  0  0  0  0  0  0  0  0  0  0  0
   -4.6406    1.8658   15.7624 C   0  0  0  0  0  0  0  0  0  0  0  0
   -3.9110    2.6444   14.8144 C   0  0  0  0  0  0  0  0  0  0  0  0
   -4.5750    3.6650   14.0801 C   0  0  0  0  0  0  0  0  0  0  0  0
  -12.5754    3.6208   14.3792 C   0  0  0  0  0  0  0  0  0  0  0  0
  -11.4273    3.2859   13.6260 C   0  0  0  0  0  0  0  0  0  0  0  0
   -8.9585    3.1794   14.3024 C   0  0  0  0  0  0  0  0  0  0  0  0
   -8.0593    3.3563   15.3890 C   0  0  0  0  0  0  0  0  0  0  0  0
   -8.5529    3.7668   16.6579 C   0  0  0  0  0  0  0  0  0  0  0  0
   -9.9434    3.9974   16.8396 C   0  0  0  0  0  0  0  0  0  0  0  0
  -10.8472    3.8051   15.7482 C   0  0  0  0  0  0  0  0  0  0  0  0
  -10.3606    3.3996   14.4919 C   0  0  0  0  0  0  0  0  0  0  0  0
  1  6  1  0  0  0  0
  2  4  1  0  0  0  0
  3  7  1  0  0  0  0
  4  5  1  0  0  0  0
  6  2  1  0  0  0  0
  7  8  1  0  0  0  0
  8  9  1  0  0  0  0
  9 10  1  0  0  0  0
 10 11  1  0  0  0  0
 10 12  1  0  0  0  0
 11 13  1  0  0  0  0
 13 15  1  0  0  0  0
 14 12  1  0  0  0  0
 15 14  1  0  0  0  0
 16 18  2  0  0  0  0
 16 22  1  0  0  0  0
 17 23  1  0  0  0  0
 17 29  1  0  0  0  0
 18 19  1  0  0  0  0
 18 26  1  0  0  0  0
 19 20  2  0  0  0  0
 20  3  1  0  0  0  0
 20 21  1  0  0  0  0
 21  5  1  0  0  0  0
 21 22  2  0  0  0  0
 23 24  2  0  0  0  0
 24 30  1  0  0  0  0
 25 26  2  0  0  0  0
 25 30  1  0  0  0  0
 26 27  1  0  0  0  0
 27 28  2  0  0  0  0
 28 29  1  0  0  0  0
 29 30  2  0  0  0  0
M  END
>  <CHROM.1>
65.37582280,-179.71772689,-156.02175110,-172.98300359,-136.47578322,-68.87695698
165.07936576,-155.40067134,62.02224998,-80.75659362,-87.11051868,-4.66890545
1.59479900,16.53573846,-0.57522076,-0.01548408,-0.61664721

>  <Name>
1uts_lig

>  <RI>
0

>  <Rbt.Current_Directory>
/home/itssahil/PROJECTS/Mol_Feturizer/New_Systems/rnas/1uts

>  <Rbt.Executable>
rbdock ($Id: //depot/dev/client3/rdock/2013.1/src/exe/rbdock.cxx#4 $)

>  <Rbt.Library>
libRbt.so (2013.1, Build901 2013/11/27)

>  <Rbt.Parameter_File>
/export/apps/rDock/src/rDock_2013.1_src/data/scripts/dock_solv.prm

>  <Rbt.Receptor>
prm/pocket_docking_8.prm

>  <SCORE>
-21.1094

>  <SCORE.INTER>
-21.0102

>  <SCORE.INTER.CONST>
1

>  <SCORE.INTER.POLAR>
-1.57683

>  <SCORE.INTER.ROT>
10

>  <SCORE.INTER.SOLV>
6.95749

>  <SCORE.INTER.VDW>
-21.3365

>  <SCORE.INTER.norm>
-0.70034

>  <SCORE.INTRA>
-0.0992191

>  <SCORE.INTRA.DIHEDRAL>
-0.478738

>  <SCORE.INTRA.DIHEDRAL.0>
18.0451

>  <SCORE.INTRA.POLAR>
0.196815

>  <SCORE.INTRA.POLAR.0>
-0.196815

>  <SCORE.INTRA.REPUL>
0

>  <SCORE.INTRA.REPUL.0>
0

>  <SCORE.INTRA.SOLV>
-0.532105

>  <SCORE.INTRA.SOLV.lig_0>
-14.7906

>  <SCORE.INTRA.VDW>
-0.262969

>  <SCORE.INTRA.VDW.0>
-0.411701

>  <SCORE.INTRA.norm>
-0.0033073

>  <SCORE.RESTR>
0

>  <SCORE.RESTR.CAVITY>
0

>  <SCORE.RESTR.norm>
0

>  <SCORE.SYSTEM>
0

>  <SCORE.SYSTEM.CONST>
0

>  <SCORE.SYSTEM.DIHEDRAL>
0

>  <SCORE.SYSTEM.SOLV>
0

>  <SCORE.SYSTEM.norm>
0

>  <SCORE.heavy>
30

>  <SCORE.norm>
-0.703648

>  <RMSD>
6.320

$$$$
1uts_lig
 OpenBabel11021811413D
libRbt.so/2013.1/901 2013/11/27
 30 33  0  0  0  0  0  0  0  0999 V2000
   -1.1785    0.3899   20.0509 N   0  0  0  0  0  0  0  0  0  0  0  0
   -3.0555    1.9197   19.6338 C   0  0  0  0  0  0  0  0  0  0  0  0
   -0.2713    4.2944   17.1314 C   0  0  0  0  0  0  0  0  0  0  0  0
   -2.7321    2.1878   18.1612 C   0  0  0  0  0  0  0  0  0  0  0  0
   -3.0319    3.5563   17.8494 O   0  0  0  0  0  0  0  0  0  0  0  0
   -2.6545    0.4878   19.9931 C   0  0  0  0  0  0  0  0  0  0  0  0
   -0.1459    5.6843   17.6259 N   0  0  0  0  0  0  0  0  0  0  0  0
    1.1074    5.8245   18.4137 C   0  0  0  0  0  0  0  0  0  0  0  0
    1.1908    7.2336   19.0078 C   0  0  0  0  0  0  0  0  0  0  0  0
    2.5840    7.5113   19.4235 N   0  0  0  0  0  0  0  0  0  0  0  0
    2.8702    6.7919   20.6980 C   0  0  0  0  0  0  0  0  0  0  0  0
    2.7624    8.9798   19.6038 C   0  0  0  0  0  0  0  0  0  0  0  0
    4.3154    7.0811   21.1349 C   0  0  0  0  0  0  0  0  0  0  0  0
    4.2082    9.2704   20.0450 C   0  0  0  0  0  0  0  0  0  0  0  0
    4.4941    8.5496   21.3166 N   0  0  0  0  0  0  0  0  0  0  0  0
   -3.4565    4.0330   14.1313 C   0  0  0  0  0  0  0  0  0  0  0  0
   -1.0389    5.8177    8.4174 N   0  0  0  0  0  0  0  0  0  0  0  0
   -2.1469    4.4086   13.7478 C   0  0  0  0  0  0  0  0  0  0  0  0
   -1.1195    4.4918   14.7251 C   0  0  0  0  0  0  0  0  0  0  0  0
   -1.4016    4.1960   16.0871 C   0  0  0  0  0  0  0  0  0  0  0  0
   -2.7266    3.8332   16.4742 C   0  0  0  0  0  0  0  0  0  0  0  0
   -3.7503    3.7486   15.4910 C   0  0  0  0  0  0  0  0  0  0  0  0
   -1.1595    7.2168    8.5776 C   0  0  0  0  0  0  0  0  0  0  0  0
   -1.5021    7.5452    9.9089 C   0  0  0  0  0  0  0  0  0  0  0  0
   -1.8789    6.0488   11.9541 C   0  0  0  0  0  0  0  0  0  0  0  0
   -1.8767    4.7002   12.4034 C   0  0  0  0  0  0  0  0  0  0  0  0
   -1.5932    3.6488   11.4888 C   0  0  0  0  0  0  0  0  0  0  0  0
   -1.3104    3.9465   10.1283 C   0  0  0  0  0  0  0  0  0  0  0  0
   -1.2997    5.3052    9.6824 C   0  0  0  0  0  0  0  0  0  0  0  0
   -1.5805    6.3467   10.5857 C   0  0  0  0  0  0  0  0  0  0  0  0
  1  6  1  0  0  0  0
  2  4  1  0  0  0  0
  3  7  1  0  0  0  0
  4  5  1  0  0  0  0
  6  2  1  0  0  0  0
  7  8  1  0  0  0  0
  8  9  1  0  0  0  0
  9 10  1  0  0  0  0
 10 11  1  0  0  0  0
 10 12  1  0  0  0  0
 11 13  1  0  0  0  0
 13 15  1  0  0  0  0
 14 12  1  0  0  0  0
 15 14  1  0  0  0  0
 16 18  2  0  0  0  0
 16 22  1  0  0  0  0
 17 23  1  0  0  0  0
 17 29  1  0  0  0  0
 18 19  1  0  0  0  0
 18 26  1  0  0  0  0
 19 20  2  0  0  0  0
 20  3  1  0  0  0  0
 20 21  1  0  0  0  0
 21  5  1  0  0  0  0
 21 22  2  0  0  0  0
 23 24  2  0  0  0  0
 24 30  1  0  0  0  0
 25 26  2  0  0  0  0
 25 30  1  0  0  0  0
 26 27  1  0  0  0  0
 27 28  2  0  0  0  0
 28 29  1  0  0  0  0
 29 30  2  0  0  0  0
M  END
>  <CHROM.1>
-58.49341624,-176.43328727,-168.63745929,179.57044615,72.14367364,-176.06209408
-162.69334443,-76.23739102,96.80507522,85.58443324,-85.13108035,-0.49440508
5.16552204,16.01300010,0.98191454,0.81824035,1.90493774

>  <Name>
1uts_lig

>  <RI>
0

>  <Rbt.Current_Directory>
/home/itssahil/PROJECTS/Mol_Feturizer/New_Systems/rnas/1uts

>  <Rbt.Executable>
rbdock ($Id: //depot/dev/client3/rdock/2013.1/src/exe/rbdock.cxx#4 $)

>  <Rbt.Library>
libRbt.so (2013.1, Build901 2013/11/27)

>  <Rbt.Parameter_File>
/export/apps/rDock/src/rDock_2013.1_src/data/scripts/dock_solv.prm

>  <Rbt.Receptor>
prm/pocket_docking_7.prm

>  <SCORE>
-29.6467

>  <SCORE.INTER>
-26.5053

>  <SCORE.INTER.CONST>
1

>  <SCORE.INTER.POLAR>
-0.894427

>  <SCORE.INTER.ROT>
10

>  <SCORE.INTER.SOLV>
9.64661

>  <SCORE.INTER.VDW>
-28.171

>  <SCORE.INTER.norm>
-0.883512

>  <SCORE.INTRA>
-3.14139

>  <SCORE.INTRA.DIHEDRAL>
-5.16598

>  <SCORE.INTRA.DIHEDRAL.0>
18.0451

>  <SCORE.INTRA.POLAR>
0.196815

>  <SCORE.INTRA.POLAR.0>
-0.196815

>  <SCORE.INTRA.REPUL>
0

>  <SCORE.INTRA.REPUL.0>
0

>  <SCORE.INTRA.SOLV>
-0.509883

>  <SCORE.INTRA.SOLV.lig_0>
-14.7906

>  <SCORE.INTRA.VDW>
-0.972634

>  <SCORE.INTRA.VDW.0>
-0.411701

>  <SCORE.INTRA.norm>
-0.104713

>  <SCORE.RESTR>
0

>  <SCORE.RESTR.CAVITY>
0

>  <SCORE.RESTR.norm>
0

>  <SCORE.SYSTEM>
0

>  <SCORE.SYSTEM.CONST>
0

>  <SCORE.SYSTEM.DIHEDRAL>
0

>  <SCORE.SYSTEM.SOLV>
0

>  <SCORE.SYSTEM.norm>
0

>  <SCORE.heavy>
30

>  <SCORE.norm>
-0.988225

>  <RMSD>
6.420

$$$$
1uts_lig
 OpenBabel11021811413D
libRbt.so/2013.1/901 2013/11/27
 30 33  0  0  0  0  0  0  0  0999 V2000
    1.6678    4.6112   15.4711 N   0  0  0  0  0  0  0  0  0  0  0  0
   -0.3767    3.3886   14.8691 C   0  0  0  0  0  0  0  0  0  0  0  0
   -3.4050    1.1089   16.4607 C   0  0  0  0  0  0  0  0  0  0  0  0
   -1.8565    3.4902   15.2500 C   0  0  0  0  0  0  0  0  0  0  0  0
   -2.6548    2.8774   14.2267 O   0  0  0  0  0  0  0  0  0  0  0  0
    0.4849    3.9108   16.0202 C   0  0  0  0  0  0  0  0  0  0  0  0
   -3.8686   -0.2955   16.5302 N   0  0  0  0  0  0  0  0  0  0  0  0
   -2.8008   -1.1469   17.1184 C   0  0  0  0  0  0  0  0  0  0  0  0
   -1.6989   -1.3855   16.0819 C   0  0  0  0  0  0  0  0  0  0  0  0
   -0.9880   -2.6443   16.3996 N   0  0  0  0  0  0  0  0  0  0  0  0
    0.2240   -2.3339   17.2112 C   0  0  0  0  0  0  0  0  0  0  0  0
   -0.6042   -3.3284   15.1325 C   0  0  0  0  0  0  0  0  0  0  0  0
    0.9672   -3.6388   17.5399 C   0  0  0  0  0  0  0  0  0  0  0  0
    0.1434   -4.6334   15.4603 C   0  0  0  0  0  0  0  0  0  0  0  0
    1.3523   -4.3229   16.2729 N   0  0  0  0  0  0  0  0  0  0  0  0
   -6.3637    3.5564   14.3464 C   0  0  0  0  0  0  0  0  0  0  0  0
  -12.1420    2.2848   17.0063 N   0  0  0  0  0  0  0  0  0  0  0  0
   -6.7681    2.7060   15.4031 C   0  0  0  0  0  0  0  0  0  0  0  0
   -5.8042    1.9152   16.0837 C   0  0  0  0  0  0  0  0  0  0  0  0
   -4.4339    1.9774   15.7091 C   0  0  0  0  0  0  0  0  0  0  0  0
   -4.0308    2.8234   14.6325 C   0  0  0  0  0  0  0  0  0  0  0  0
   -4.9996    3.6150   13.9569 C   0  0  0  0  0  0  0  0  0  0  0  0
  -12.0356    1.0294   17.6469 C   0  0  0  0  0  0  0  0  0  0  0  0
  -10.7195    0.5230   17.5506 C   0  0  0  0  0  0  0  0  0  0  0  0
   -8.6212    1.5204   16.4707 C   0  0  0  0  0  0  0  0  0  0  0  0
   -8.1211    2.6489   15.7659 C   0  0  0  0  0  0  0  0  0  0  0  0
   -8.9936    3.7222   15.4357 C   0  0  0  0  0  0  0  0  0  0  0  0
  -10.3629    3.6673   15.8121 C   0  0  0  0  0  0  0  0  0  0  0  0
  -10.8599    2.5368   16.5334 C   0  0  0  0  0  0  0  0  0  0  0  0
   -9.9983    1.4738   16.8603 C   0  0  0  0  0  0  0  0  0  0  0  0
  1  6  1  0  0  0  0
  2  4  1  0  0  0  0
  3  7  1  0  0  0  0
  4  5  1  0  0  0  0
  6  2  1  0  0  0  0
  7  8  1  0  0  0  0
  8  9  1  0  0  0  0
  9 10  1  0  0  0  0
 10 11  1  0  0  0  0
 10 12  1  0  0  0  0
 11 13  1  0  0  0  0
 13 15  1  0  0  0  0
 14 12  1  0  0  0  0
 15 14  1  0  0  0  0
 16 18  2  0  0  0  0
 16 22  1  0  0  0  0
 17 23  1  0  0  0  0
 17 29  1  0  0  0  0
 18 19  1  0  0  0  0
 18 26  1  0  0  0  0
 19 20  2  0  0  0  0
 20  3  1  0  0  0  0
 20 21  1  0  0  0  0
 21  5  1  0  0  0  0
 21 22  2  0  0  0  0
 23 24  2  0  0  0  0
 24 30  1  0  0  0  0
 25 26  2  0  0  0  0
 25 30  1  0  0  0  0
 26 27  1  0  0  0  0
 27 28  2  0  0  0  0
 28 29  1  0  0  0  0
 29 30  2  0  0  0  0
M  END
>  <CHROM.1>
-62.00446621,-174.25253049,173.61479255,173.39474563,-144.30592110,-75.40758468
-154.98714504,-94.77660854,158.54004955,49.91146318,-67.94617855,-4.35445799
0.98529171,15.97524273,-0.33784239,0.11640889,-0.24379757

>  <Name>
1uts_lig

>  <RI>
0

>  <Rbt.Current_Directory>
/home/itssahil/PROJECTS/Mol_Feturizer/New_Systems/rnas/1uts

>  <Rbt.Executable>
rbdock ($Id: //depot/dev/client3/rdock/2013.1/src/exe/rbdock.cxx#4 $)

>  <Rbt.Library>
libRbt.so (2013.1, Build901 2013/11/27)

>  <Rbt.Parameter_File>
/export/apps/rDock/src/rDock_2013.1_src/data/scripts/dock_solv.prm

>  <Rbt.Receptor>
prm/pocket_docking_8.prm

>  <SCORE>
-27.303

>  <SCORE.INTER>
-27.6023

>  <SCORE.INTER.CONST>
1

>  <SCORE.INTER.POLAR>
-2.93158

>  <SCORE.INTER.ROT>
10

>  <SCORE.INTER.SOLV>
8.4161

>  <SCORE.INTER.VDW>
-21.7016

>  <SCORE.INTER.norm>
-0.920078

>  <SCORE.INTRA>
0.299303

>  <SCORE.INTRA.DIHEDRAL>
-3.65903

>  <SCORE.INTRA.DIHEDRAL.0>
18.0451

>  <SCORE.INTRA.POLAR>
0.196815

>  <SCORE.INTRA.POLAR.0>
-0.196815

>  <SCORE.INTRA.REPUL>
0

>  <SCORE.INTRA.REPUL.0>
0

>  <SCORE.INTRA.SOLV>
-0.65456

>  <SCORE.INTRA.SOLV.lig_0>
-14.7906

>  <SCORE.INTRA.VDW>
1.78692

>  <SCORE.INTRA.VDW.0>
-0.411701

>  <SCORE.INTRA.norm>
0.00997676

>  <SCORE.RESTR>
0

>  <SCORE.RESTR.CAVITY>
0

>  <SCORE.RESTR.norm>
0

>  <SCORE.SYSTEM>
0

>  <SCORE.SYSTEM.CONST>
0

>  <SCORE.SYSTEM.DIHEDRAL>
0

>  <SCORE.SYSTEM.SOLV>
0

>  <SCORE.SYSTEM.norm>
0

>  <SCORE.heavy>
30

>  <SCORE.norm>
-0.910101

>  <RMSD>
6.479

$$$$
1uts_lig
 OpenBabel11021811413D
libRbt.so/2013.1/901 2013/11/27
 30 33  0  0  0  0  0  0  0  0999 V2000
    9.5493   -0.5447   22.1882 N   0  0  0  0  0  0  0  0  0  0  0  0
    8.3446   -2.4797   21.2706 C   0  0  0  0  0  0  0  0  0  0  0  0
    6.4316   -2.2654   16.7262 C   0  0  0  0  0  0  0  0  0  0  0  0
    7.2564   -1.6144   20.6285 C   0  0  0  0  0  0  0  0  0  0  0  0
    7.6086   -1.3412   19.2643 O   0  0  0  0  0  0  0  0  0  0  0  0
    9.6673   -1.7114   21.2845 C   0  0  0  0  0  0  0  0  0  0  0  0
    5.4685   -3.3453   17.0398 N   0  0  0  0  0  0  0  0  0  0  0  0
    5.4530   -3.5925   18.5059 C   0  0  0  0  0  0  0  0  0  0  0  0
    4.4456   -4.6984   18.8340 C   0  0  0  0  0  0  0  0  0  0  0  0
    3.0708   -4.1863   18.6383 N   0  0  0  0  0  0  0  0  0  0  0  0
    2.1876   -4.7234   19.7131 C   0  0  0  0  0  0  0  0  0  0  0  0
    2.5731   -4.6064   17.2978 C   0  0  0  0  0  0  0  0  0  0  0  0
    0.7576   -4.1966   19.5109 C   0  0  0  0  0  0  0  0  0  0  0  0
    1.1398   -4.0825   17.0957 C   0  0  0  0  0  0  0  0  0  0  0  0
    0.2589   -4.6175   18.1709 N   0  0  0  0  0  0  0  0  0  0  0  0
    5.1920    1.4847   18.6275 C   0  0  0  0  0  0  0  0  0  0  0  0
    0.5612    4.1802   15.0282 N   0  0  0  0  0  0  0  0  0  0  0  0
    4.6146    1.0852   17.3986 C   0  0  0  0  0  0  0  0  0  0  0  0
    5.0211   -0.1310   16.7877 C   0  0  0  0  0  0  0  0  0  0  0  0
    6.0041   -0.9500   17.4081 C   0  0  0  0  0  0  0  0  0  0  0  0
    6.5969   -0.5371   18.6391 C   0  0  0  0  0  0  0  0  0  0  0  0
    6.1837    0.6798   19.2475 C   0  0  0  0  0  0  0  0  0  0  0  0
   -0.4524    3.1957   15.0610 C   0  0  0  0  0  0  0  0  0  0  0  0
    0.0326    1.9895   15.6154 C   0  0  0  0  0  0  0  0  0  0  0  0
    2.3440    1.3882   16.5428 C   0  0  0  0  0  0  0  0  0  0  0  0
    3.6470    1.8986   16.7921 C   0  0  0  0  0  0  0  0  0  0  0  0
    3.9650    3.2369   16.4317 C   0  0  0  0  0  0  0  0  0  0  0  0
    2.9806    4.0633   15.8254 C   0  0  0  0  0  0  0  0  0  0  0  0
    1.6665    3.5514   15.5886 C   0  0  0  0  0  0  0  0  0  0  0  0
    1.3503    2.2273   15.9439 C   0  0  0  0  0  0  0  0  0  0  0  0
  1  6  1  0  0  0  0
  2  4  1  0  0  0  0
  3  7  1  0  0  0  0
  4  5  1  0  0  0  0
  6  2  1  0  0  0  0
  7  8  1  0  0  0  0
  8  9  1  0  0  0  0
  9 10  1  0  0  0  0
 10 11  1  0  0  0  0
 10 12  1  0  0  0  0
 11 13  1  0  0  0  0
 13 15  1  0  0  0  0
 14 12  1  0  0  0  0
 15 14  1  0  0  0  0
 16 18  2  0  0  0  0
 16 22  1  0  0  0  0
 17 23  1  0  0  0  0
 17 29  1  0  0  0  0
 18 19  1  0  0  0  0
 18 26  1  0  0  0  0
 19 20  2  0  0  0  0
 20  3  1  0  0  0  0
 20 21  1  0  0  0  0
 21  5  1  0  0  0  0
 21 22  2  0  0  0  0
 23 24  2  0  0  0  0
 24 30  1  0  0  0  0
 25 26  2  0  0  0  0
 25 30  1  0  0  0  0
 26 27  1  0  0  0  0
 27 28  2  0  0  0  0
 28 29  1  0  0  0  0
 29 30  2  0  0  0  0
M  END
>  <CHROM.1>
176.93392772,62.53122961,-62.00361811,179.63519830,66.30639271,179.36299242
-70.87353861,-141.24933589,-120.37182522,-82.41888315,-127.01855527,4.18263284
-0.82342174,17.98166585,-0.78636743,-0.42934231,-0.29631401

>  <Name>
1uts_lig

>  <RI>
0

>  <Rbt.Current_Directory>
/home/itssahil/PROJECTS/Mol_Feturizer/New_Systems/rnas/1uts

>  <Rbt.Executable>
rbdock ($Id: //depot/dev/client3/rdock/2013.1/src/exe/rbdock.cxx#4 $)

>  <Rbt.Library>
libRbt.so (2013.1, Build901 2013/11/27)

>  <Rbt.Parameter_File>
/export/apps/rDock/src/rDock_2013.1_src/data/scripts/dock_solv.prm

>  <Rbt.Receptor>
prm/pocket_docking_6.prm

>  <SCORE>
-26.8898

>  <SCORE.INTER>
-23.958

>  <SCORE.INTER.CONST>
1

>  <SCORE.INTER.POLAR>
-2.88504

>  <SCORE.INTER.ROT>
10

>  <SCORE.INTER.SOLV>
7.80208

>  <SCORE.INTER.VDW>
-19.2226

>  <SCORE.INTER.norm>
-0.798601

>  <SCORE.INTRA>
-2.93182

>  <SCORE.INTRA.DIHEDRAL>
-7.51037

>  <SCORE.INTRA.DIHEDRAL.0>
18.0451

>  <SCORE.INTRA.POLAR>
0.196815

>  <SCORE.INTRA.POLAR.0>
-0.196815

>  <SCORE.INTRA.REPUL>
0

>  <SCORE.INTRA.REPUL.0>
0

>  <SCORE.INTRA.SOLV>
0.0496287

>  <SCORE.INTRA.SOLV.lig_0>
-14.7906

>  <SCORE.INTRA.VDW>
0.129376

>  <SCORE.INTRA.VDW.0>
-0.411701

>  <SCORE.INTRA.norm>
-0.0977274

>  <SCORE.RESTR>
0

>  <SCORE.RESTR.CAVITY>
0

>  <SCORE.RESTR.norm>
0

>  <SCORE.SYSTEM>
0

>  <SCORE.SYSTEM.CONST>
0

>  <SCORE.SYSTEM.DIHEDRAL>
0

>  <SCORE.SYSTEM.SOLV>
0

>  <SCORE.SYSTEM.norm>
0

>  <SCORE.heavy>
30

>  <SCORE.norm>
-0.896328

>  <RMSD>
6.518

$$$$
1uts_lig
 OpenBabel11021811413D
libRbt.so/2013.1/901 2013/11/27
 30 33  0  0  0  0  0  0  0  0999 V2000
   -1.1786    7.6459   10.4179 N   0  0  0  0  0  0  0  0  0  0  0  0
   -1.6989    5.2929   10.8970 C   0  0  0  0  0  0  0  0  0  0  0  0
   -0.5812    3.1992   15.2148 C   0  0  0  0  0  0  0  0  0  0  0  0
   -2.4669    4.3619   11.8398 C   0  0  0  0  0  0  0  0  0  0  0  0
   -2.1362    4.6824   13.1991 O   0  0  0  0  0  0  0  0  0  0  0  0
   -2.0174    6.7483   11.2438 C   0  0  0  0  0  0  0  0  0  0  0  0
   -0.2294    4.3079   16.1309 N   0  0  0  0  0  0  0  0  0  0  0  0
    1.1384    4.0945   16.6734 C   0  0  0  0  0  0  0  0  0  0  0  0
    2.1798    4.4762   15.6173 C   0  0  0  0  0  0  0  0  0  0  0  0
    3.5325    4.4170   16.2153 N   0  0  0  0  0  0  0  0  0  0  0  0
    4.4860    5.1715   15.3520 C   0  0  0  0  0  0  0  0  0  0  0  0
    3.9566    2.9936   16.3382 C   0  0  0  0  0  0  0  0  0  0  0  0
    5.8930    5.1090   15.9681 C   0  0  0  0  0  0  0  0  0  0  0  0
    5.3670    2.9299   16.9516 C   0  0  0  0  0  0  0  0  0  0  0  0
    6.3182    3.6857   16.0900 N   0  0  0  0  0  0  0  0  0  0  0  0
   -4.9344    2.8005   14.8903 C   0  0  0  0  0  0  0  0  0  0  0  0
   -7.2246   -1.3429   19.1862 N   0  0  0  0  0  0  0  0  0  0  0  0
   -4.2221    2.0564   15.8610 C   0  0  0  0  0  0  0  0  0  0  0  0
   -2.8115    2.1900   15.9604 C   0  0  0  0  0  0  0  0  0  0  0  0
   -2.1129    3.0711   15.0901 C   0  0  0  0  0  0  0  0  0  0  0  0
   -2.8311    3.8082   14.1012 C   0  0  0  0  0  0  0  0  0  0  0  0
   -4.2435    3.6727   14.0084 C   0  0  0  0  0  0  0  0  0  0  0  0
   -8.4899   -0.7694   18.9258 C   0  0  0  0  0  0  0  0  0  0  0  0
   -8.3763    0.3215   18.0344 C   0  0  0  0  0  0  0  0  0  0  0  0
   -6.3242    1.3208   16.8707 C   0  0  0  0  0  0  0  0  0  0  0  0
   -4.9176    1.1885   16.7146 C   0  0  0  0  0  0  0  0  0  0  0  0
   -4.2187    0.1706   17.4201 C   0  0  0  0  0  0  0  0  0  0  0  0
   -4.9262   -0.7143   18.2779 C   0  0  0  0  0  0  0  0  0  0  0  0
   -6.3433   -0.5875   18.4221 C   0  0  0  0  0  0  0  0  0  0  0  0
   -7.0363    0.4193   17.7254 C   0  0  0  0  0  0  0  0  0  0  0  0
  1  6  1  0  0  0  0
  2  4  1  0  0  0  0
  3  7  1  0  0  0  0
  4  5  1  0  0  0  0
  6  2  1  0  0  0  0
  7  8  1  0  0  0  0
  8  9  1  0  0  0  0
  9 10  1  0  0  0  0
 10 11  1  0  0  0  0
 10 12  1  0  0  0  0
 11 13  1  0  0  0  0
 13 15  1  0  0  0  0
 14 12  1  0  0  0  0
 15 14  1  0  0  0  0
 16 18  2  0  0  0  0
 16 22  1  0  0  0  0
 17 23  1  0  0  0  0
 17 29  1  0  0  0  0
 18 19  1  0  0  0  0
 18 26  1  0  0  0  0
 19 20  2  0  0  0  0
 20  3  1  0  0  0  0
 20 21  1  0  0  0  0
 21  5  1  0  0  0  0
 21 22  2  0  0  0  0
 23 24  2  0  0  0  0
 24 30  1  0  0  0  0
 25 26  2  0  0  0  0
 25 30  1  0  0  0  0
 26 27  1  0  0  0  0
 27 28  2  0  0  0  0
 28 29  1  0  0  0  0
 29 30  2  0  0  0  0
M  END
>  <CHROM.1>
81.45158597,-56.54191161,157.25776739,-179.17391199,174.71219083,77.45759052
173.26227259,-162.78074758,-17.48799029,-92.20324108,126.48954246,-1.67636610
3.01087011,15.57857602,0.43607252,-0.18920909,-0.91068547

>  <Name>
1uts_lig

>  <RI>
0

>  <Rbt.Current_Directory>
/home/itssahil/PROJECTS/Mol_Feturizer/New_Systems/rnas/1uts

>  <Rbt.Executable>
rbdock ($Id: //depot/dev/client3/rdock/2013.1/src/exe/rbdock.cxx#4 $)

>  <Rbt.Library>
libRbt.so (2013.1, Build901 2013/11/27)

>  <Rbt.Parameter_File>
/export/apps/rDock/src/rDock_2013.1_src/data/scripts/dock_solv.prm

>  <Rbt.Receptor>
prm/pocket_docking_8.prm

>  <SCORE>
-38.0789

>  <SCORE.INTER>
-36.3609

>  <SCORE.INTER.CONST>
1

>  <SCORE.INTER.POLAR>
-3.32062

>  <SCORE.INTER.ROT>
10

>  <SCORE.INTER.SOLV>
9.0974

>  <SCORE.INTER.VDW>
-26.471

>  <SCORE.INTER.norm>
-1.21203

>  <SCORE.INTRA>
-1.71799

>  <SCORE.INTRA.DIHEDRAL>
-9.97068

>  <SCORE.INTRA.DIHEDRAL.0>
18.0451

>  <SCORE.INTRA.POLAR>
0.196815

>  <SCORE.INTRA.POLAR.0>
-0.196815

>  <SCORE.INTRA.REPUL>
0

>  <SCORE.INTRA.REPUL.0>
0

>  <SCORE.INTRA.SOLV>
-0.530973

>  <SCORE.INTRA.SOLV.lig_0>
-14.7906

>  <SCORE.INTRA.VDW>
2.86367

>  <SCORE.INTRA.VDW.0>
-0.411701

>  <SCORE.INTRA.norm>
-0.0572663

>  <SCORE.RESTR>
0

>  <SCORE.RESTR.CAVITY>
0

>  <SCORE.RESTR.norm>
0

>  <SCORE.SYSTEM>
0

>  <SCORE.SYSTEM.CONST>
0

>  <SCORE.SYSTEM.DIHEDRAL>
0

>  <SCORE.SYSTEM.SOLV>
0

>  <SCORE.SYSTEM.norm>
0

>  <SCORE.heavy>
30

>  <SCORE.norm>
-1.2693

>  <RMSD>
6.788

$$$$
1uts_lig
 OpenBabel11021811413D
libRbt.so/2013.1/901 2013/11/27
 30 33  0  0  0  0  0  0  0  0999 V2000
    4.6644   -6.5139   20.6040 N   0  0  0  0  0  0  0  0  0  0  0  0
    4.4236   -4.9953   18.6875 C   0  0  0  0  0  0  0  0  0  0  0  0
    6.6696   -1.0000   16.9375 C   0  0  0  0  0  0  0  0  0  0  0  0
    4.4922   -3.7206   19.5335 C   0  0  0  0  0  0  0  0  0  0  0  0
    5.3546   -2.7694   18.8923 O   0  0  0  0  0  0  0  0  0  0  0  0
    3.7652   -6.1128   19.4986 C   0  0  0  0  0  0  0  0  0  0  0  0
    7.3584    0.3051   17.0574 N   0  0  0  0  0  0  0  0  0  0  0  0
    7.2556    1.0457   15.7721 C   0  0  0  0  0  0  0  0  0  0  0  0
    7.5402    2.5321   16.0067 C   0  0  0  0  0  0  0  0  0  0  0  0
    6.3021    3.2053   16.4591 N   0  0  0  0  0  0  0  0  0  0  0  0
    6.0072    4.3535   15.5543 C   0  0  0  0  0  0  0  0  0  0  0  0
    6.4816    3.6801   17.8603 C   0  0  0  0  0  0  0  0  0  0  0  0
    4.7238    5.0577   16.0235 C   0  0  0  0  0  0  0  0  0  0  0  0
    5.1983    4.3887   18.3299 C   0  0  0  0  0  0  0  0  0  0  0  0
    4.9031    5.5338   17.4244 N   0  0  0  0  0  0  0  0  0  0  0  0
    2.4363   -0.5576   17.9852 C   0  0  0  0  0  0  0  0  0  0  0  0
   -0.2479    4.2609   14.7398 N   0  0  0  0  0  0  0  0  0  0  0  0
    3.0350    0.3247   17.0544 C   0  0  0  0  0  0  0  0  0  0  0  0
    4.4073    0.1761   16.7197 C   0  0  0  0  0  0  0  0  0  0  0  0
    5.1811   -0.8582   17.3143 C   0  0  0  0  0  0  0  0  0  0  0  0
    4.5795   -1.7365   18.2649 C   0  0  0  0  0  0  0  0  0  0  0  0
    3.2046   -1.5849   18.5938 C   0  0  0  0  0  0  0  0  0  0  0  0
   -1.3719    3.4362   14.5067 C   0  0  0  0  0  0  0  0  0  0  0  0
   -1.1196    2.1090   14.9218 C   0  0  0  0  0  0  0  0  0  0  0  0
    0.9544    1.0629   16.0028 C   0  0  0  0  0  0  0  0  0  0  0  0
    2.2661    1.3430   16.4733 C   0  0  0  0  0  0  0  0  0  0  0  0
    2.7940    2.6585   16.3600 C   0  0  0  0  0  0  0  0  0  0  0  0
    2.0101    3.6919   15.7792 C   0  0  0  0  0  0  0  0  0  0  0  0
    0.6856    3.4102   15.3195 C   0  0  0  0  0  0  0  0  0  0  0  0
    0.1619    2.1091   15.4302 C   0  0  0  0  0  0  0  0  0  0  0  0
  1  6  1  0  0  0  0
  2  4  1  0  0  0  0
  3  7  1  0  0  0  0
  4  5  1  0  0  0  0
  6  2  1  0  0  0  0
  7  8  1  0  0  0  0
  8  9  1  0  0  0  0
  9 10  1  0  0  0  0
 10 11  1  0  0  0  0
 10 12  1  0  0  0  0
 11 13  1  0  0  0  0
 13 15  1  0  0  0  0
 14 12  1  0  0  0  0
 15 14  1  0  0  0  0
 16 18  2  0  0  0  0
 16 22  1  0  0  0  0
 17 23  1  0  0  0  0
 17 29  1  0  0  0  0
 18 19  1  0  0  0  0
 18 26  1  0  0  0  0
 19 20  2  0  0  0  0
 20  3  1  0  0  0  0
 20 21  1  0  0  0  0
 21  5  1  0  0  0  0
 21 22  2  0  0  0  0
 23 24  2  0  0  0  0
 24 30  1  0  0  0  0
 25 26  2  0  0  0  0
 25 30  1  0  0  0  0
 26 27  1  0  0  0  0
 27 28  2  0  0  0  0
 28 29  1  0  0  0  0
 29 30  2  0  0  0  0
M  END
>  <CHROM.1>
-54.67064819,167.73056374,-88.78876537,104.26233696,-68.52870711,161.54233033
-84.02875323,-124.77353464,-43.95605606,50.04794223,-165.47342106,3.91321180
0.78616467,17.06225361,1.31841097,0.19731576,2.80077436

>  <Name>
1uts_lig

>  <RI>
0

>  <Rbt.Current_Directory>
/home/itssahil/PROJECTS/Mol_Feturizer/New_Systems/rnas/1uts

>  <Rbt.Executable>
rbdock ($Id: //depot/dev/client3/rdock/2013.1/src/exe/rbdock.cxx#4 $)

>  <Rbt.Library>
libRbt.so (2013.1, Build901 2013/11/27)

>  <Rbt.Parameter_File>
/export/apps/rDock/src/rDock_2013.1_src/data/scripts/dock_solv.prm

>  <Rbt.Receptor>
prm/pocket_docking_5.prm

>  <SCORE>
-17.0155

>  <SCORE.INTER>
-20.2894

>  <SCORE.INTER.CONST>
1

>  <SCORE.INTER.POLAR>
-1.66819

>  <SCORE.INTER.ROT>
10

>  <SCORE.INTER.SOLV>
6.54769

>  <SCORE.INTER.VDW>
-20.4149

>  <SCORE.INTER.norm>
-0.676315

>  <SCORE.INTRA>
3.27394

>  <SCORE.INTRA.DIHEDRAL>
0.133542

>  <SCORE.INTRA.DIHEDRAL.0>
18.0451

>  <SCORE.INTRA.POLAR>
0.196815

>  <SCORE.INTRA.POLAR.0>
-0.196815

>  <SCORE.INTRA.REPUL>
0

>  <SCORE.INTRA.REPUL.0>
0

>  <SCORE.INTRA.SOLV>
0.0250942

>  <SCORE.INTRA.SOLV.lig_0>
-14.7906

>  <SCORE.INTRA.VDW>
2.52545

>  <SCORE.INTRA.VDW.0>
-0.411701

>  <SCORE.INTRA.norm>
0.109131

>  <SCORE.RESTR>
0

>  <SCORE.RESTR.CAVITY>
0

>  <SCORE.RESTR.norm>
0

>  <SCORE.SYSTEM>
0

>  <SCORE.SYSTEM.CONST>
0

>  <SCORE.SYSTEM.DIHEDRAL>
0

>  <SCORE.SYSTEM.SOLV>
0

>  <SCORE.SYSTEM.norm>
0

>  <SCORE.heavy>
30

>  <SCORE.norm>
-0.567184

>  <RMSD>
6.798

$$$$
1uts_lig
 OpenBabel11021811413D
libRbt.so/2013.1/901 2013/11/27
 30 33  0  0  0  0  0  0  0  0999 V2000
   -4.8850   -1.1450   18.6108 N   0  0  0  0  0  0  0  0  0  0  0  0
   -4.2945    0.9665   17.5017 C   0  0  0  0  0  0  0  0  0  0  0  0
   -1.1134    4.2607   16.3318 C   0  0  0  0  0  0  0  0  0  0  0  0
   -3.6992    1.5763   16.2293 C   0  0  0  0  0  0  0  0  0  0  0  0
   -3.7797    3.0073   16.3043 O   0  0  0  0  0  0  0  0  0  0  0  0
   -4.2898   -0.5590   17.3885 C   0  0  0  0  0  0  0  0  0  0  0  0
   -1.8989    4.7348   17.4938 N   0  0  0  0  0  0  0  0  0  0  0  0
   -1.0174    4.8345   18.6872 C   0  0  0  0  0  0  0  0  0  0  0  0
   -0.0730    6.0305   18.5350 C   0  0  0  0  0  0  0  0  0  0  0  0
    0.8080    6.1166   19.7213 N   0  0  0  0  0  0  0  0  0  0  0  0
    0.0326    6.6636   20.8717 C   0  0  0  0  0  0  0  0  0  0  0  0
    1.9695    6.9973   19.4113 C   0  0  0  0  0  0  0  0  0  0  0  0
    0.9455    6.7581   22.1049 C   0  0  0  0  0  0  0  0  0  0  0  0
    2.8825    7.0957   20.6468 C   0  0  0  0  0  0  0  0  0  0  0  0
    2.1068    7.6397   21.7959 N   0  0  0  0  0  0  0  0  0  0  0  0
   -3.5942    4.1665   12.7192 C   0  0  0  0  0  0  0  0  0  0  0  0
   -0.5002    6.9562    7.8352 N   0  0  0  0  0  0  0  0  0  0  0  0
   -2.3261    4.7946   12.6953 C   0  0  0  0  0  0  0  0  0  0  0  0
   -1.5275    4.8219   13.8696 C   0  0  0  0  0  0  0  0  0  0  0  0
   -1.9964    4.2177   15.0683 C   0  0  0  0  0  0  0  0  0  0  0  0
   -3.2825    3.5992   15.0946 C   0  0  0  0  0  0  0  0  0  0  0  0
   -4.0762    3.5722   13.9152 C   0  0  0  0  0  0  0  0  0  0  0  0
   -0.1764    5.7309    7.2094 C   0  0  0  0  0  0  0  0  0  0  0  0
   -0.4325    4.6404    8.0713 C   0  0  0  0  0  0  0  0  0  0  0  0
   -1.3759    4.5792   10.4525 C   0  0  0  0  0  0  0  0  0  0  0  0
   -1.8710    5.3895   11.5102 C   0  0  0  0  0  0  0  0  0  0  0  0
   -1.9104    6.8032   11.3613 C   0  0  0  0  0  0  0  0  0  0  0  0
   -1.4575    7.4043   10.1559 C   0  0  0  0  0  0  0  0  0  0  0  0
   -0.9729    6.5855    9.0883 C   0  0  0  0  0  0  0  0  0  0  0  0
   -0.9326    5.1867    9.2340 C   0  0  0  0  0  0  0  0  0  0  0  0
  1  6  1  0  0  0  0
  2  4  1  0  0  0  0
  3  7  1  0  0  0  0
  4  5  1  0  0  0  0
  6  2  1  0  0  0  0
  7  8  1  0  0  0  0
  8  9  1  0  0  0  0
  9 10  1  0  0  0  0
 10 11  1  0  0  0  0
 10 12  1  0  0  0  0
 11 13  1  0  0  0  0
 13 15  1  0  0  0  0
 14 12  1  0  0  0  0
 15 14  1  0  0  0  0
 16 18  2  0  0  0  0
 16 22  1  0  0  0  0
 17 23  1  0  0  0  0
 17 29  1  0  0  0  0
 18 19  1  0  0  0  0
 18 26  1  0  0  0  0
 19 20  2  0  0  0  0
 20  3  1  0  0  0  0
 20 21  1  0  0  0  0
 21  5  1  0  0  0  0
 21 22  2  0  0  0  0
 23 24  2  0  0  0  0
 24 30  1  0  0  0  0
 25 26  2  0  0  0  0
 25 30  1  0  0  0  0
 26 27  1  0  0  0  0
 27 28  2  0  0  0  0
 28 29  1  0  0  0  0
 29 30  2  0  0  0  0
M  END
>  <CHROM.1>
-60.41660728,176.52469056,-177.22216162,-177.37753753,-179.13000449,72.32995178
-179.55779368,-75.64158240,-76.55897359,130.42657247,-104.65413170,-1.41929795
4.73934748,15.23579558,1.38778375,0.85730266,1.73809660

>  <Name>
1uts_lig

>  <RI>
0

>  <Rbt.Current_Directory>
/home/itssahil/PROJECTS/Mol_Feturizer/New_Systems/rnas/1uts

>  <Rbt.Executable>
rbdock ($Id: //depot/dev/client3/rdock/2013.1/src/exe/rbdock.cxx#4 $)

>  <Rbt.Library>
libRbt.so (2013.1, Build901 2013/11/27)

>  <Rbt.Parameter_File>
/export/apps/rDock/src/rDock_2013.1_src/data/scripts/dock_solv.prm

>  <Rbt.Receptor>
prm/pocket_docking_8.prm

>  <SCORE>
-26.1337

>  <SCORE.INTER>
-20.8889

>  <SCORE.INTER.CONST>
1

>  <SCORE.INTER.POLAR>
0

>  <SCORE.INTER.ROT>
10

>  <SCORE.INTER.SOLV>
8.53089

>  <SCORE.INTER.VDW>
-27.0362

>  <SCORE.INTER.norm>
-0.696296

>  <SCORE.INTRA>
-5.24483

>  <SCORE.INTRA.DIHEDRAL>
-7.22265

>  <SCORE.INTRA.DIHEDRAL.0>
18.0451

>  <SCORE.INTRA.POLAR>
-0.353622

>  <SCORE.INTRA.POLAR.0>
-0.196815

>  <SCORE.INTRA.REPUL>
0

>  <SCORE.INTRA.REPUL.0>
0

>  <SCORE.INTRA.SOLV>
-0.377827

>  <SCORE.INTRA.SOLV.lig_0>
-14.7906

>  <SCORE.INTRA.VDW>
-0.242271

>  <SCORE.INTRA.VDW.0>
-0.411701

>  <SCORE.INTRA.norm>
-0.174828

>  <SCORE.RESTR>
0

>  <SCORE.RESTR.CAVITY>
0

>  <SCORE.RESTR.norm>
0

>  <SCORE.SYSTEM>
0

>  <SCORE.SYSTEM.CONST>
0

>  <SCORE.SYSTEM.DIHEDRAL>
0

>  <SCORE.SYSTEM.SOLV>
0

>  <SCORE.SYSTEM.norm>
0

>  <SCORE.heavy>
30

>  <SCORE.norm>
-0.871123

>  <RMSD>
7.053

$$$$
1uts_lig
 OpenBabel11021811413D
libRbt.so/2013.1/901 2013/11/27
 30 33  0  0  0  0  0  0  0  0999 V2000
   -1.2673    8.0097   10.3247 N   0  0  0  0  0  0  0  0  0  0  0  0
   -1.5734    5.6384   10.8908 C   0  0  0  0  0  0  0  0  0  0  0  0
   -1.3548    3.1090   14.4271 C   0  0  0  0  0  0  0  0  0  0  0  0
   -1.3881    4.2075   10.3776 C   0  0  0  0  0  0  0  0  0  0  0  0
   -1.4076    3.2974   11.4872 O   0  0  0  0  0  0  0  0  0  0  0  0
   -1.0042    6.6256    9.8702 C   0  0  0  0  0  0  0  0  0  0  0  0
   -1.2318    4.1153   15.5062 N   0  0  0  0  0  0  0  0  0  0  0  0
    0.0492    3.9151   16.2342 C   0  0  0  0  0  0  0  0  0  0  0  0
   -0.0737    4.4632   17.6589 C   0  0  0  0  0  0  0  0  0  0  0  0
    0.9752    5.4824   17.8868 N   0  0  0  0  0  0  0  0  0  0  0  0
    2.2736    4.8007   18.1576 C   0  0  0  0  0  0  0  0  0  0  0  0
    0.5876    6.3407   19.0418 C   0  0  0  0  0  0  0  0  0  0  0  0
    3.3648    5.8562   18.3986 C   0  0  0  0  0  0  0  0  0  0  0  0
    1.6814    7.3958   19.2865 C   0  0  0  0  0  0  0  0  0  0  0  0
    2.9783    6.7142   19.5545 N   0  0  0  0  0  0  0  0  0  0  0  0
   -5.0850    3.7287   12.2099 C   0  0  0  0  0  0  0  0  0  0  0  0
  -10.1099    3.8803   16.1733 N   0  0  0  0  0  0  0  0  0  0  0  0
   -5.1049    3.6257   13.6214 C   0  0  0  0  0  0  0  0  0  0  0  0
   -3.8926    3.4244   14.3337 C   0  0  0  0  0  0  0  0  0  0  0  0
   -2.6586    3.3292   13.6336 C   0  0  0  0  0  0  0  0  0  0  0  0
   -2.6428    3.4170   12.2092 C   0  0  0  0  0  0  0  0  0  0  0  0
   -3.8591    3.6215   11.5017 C   0  0  0  0  0  0  0  0  0  0  0  0
  -10.8912    3.4764   15.0669 C   0  0  0  0  0  0  0  0  0  0  0  0
  -10.0800    3.2477   13.9323 C   0  0  0  0  0  0  0  0  0  0  0  0
   -7.5416    3.4213   13.6315 C   0  0  0  0  0  0  0  0  0  0  0  0
   -6.3256    3.7191   14.3046 C   0  0  0  0  0  0  0  0  0  0  0  0
   -6.3490    4.1050   15.6731 C   0  0  0  0  0  0  0  0  0  0  0  0
   -7.5862    4.1903   16.3670 C   0  0  0  0  0  0  0  0  0  0  0  0
   -8.8067    3.8766   15.6910 C   0  0  0  0  0  0  0  0  0  0  0  0
   -8.7856    3.4953   14.3369 C   0  0  0  0  0  0  0  0  0  0  0  0
  1  6  1  0  0  0  0
  2  4  1  0  0  0  0
  3  7  1  0  0  0  0
  4  5  1  0  0  0  0
  6  2  1  0  0  0  0
  7  8  1  0  0  0  0
  8  9  1  0  0  0  0
  9 10  1  0  0  0  0
 10 11  1  0  0  0  0
 10 12  1  0  0  0  0
 11 13  1  0  0  0  0
 13 15  1  0  0  0  0
 14 12  1  0  0  0  0
 15 14  1  0  0  0  0
 16 18  2  0  0  0  0
 16 22  1  0  0  0  0
 17 23  1  0  0  0  0
 17 29  1  0  0  0  0
 18 19  1  0  0  0  0
 18 26  1  0  0  0  0
 19 20  2  0  0  0  0
 20  3  1  0  0  0  0
 20 21  1  0  0  0  0
 21  5  1  0  0  0  0
 21 22  2  0  0  0  0
 23 24  2  0  0  0  0
 24 30  1  0  0  0  0
 25 26  2  0  0  0  0
 25 30  1  0  0  0  0
 26 27  1  0  0  0  0
 27 28  2  0  0  0  0
 28 29  1  0  0  0  0
 29 30  2  0  0  0  0
M  END
>  <CHROM.1>
168.69772570,157.12398503,-178.27671977,58.22700677,176.15187317,-154.63891065
-122.78975134,-78.69646463,23.31628644,-52.02271561,-141.72457244,-3.03676549
4.56400256,14.75567872,-0.31835318,-0.21146185,-1.58387915

>  <Name>
1uts_lig

>  <RI>
0

>  <Rbt.Current_Directory>
/home/itssahil/PROJECTS/Mol_Feturizer/New_Systems/rnas/1uts

>  <Rbt.Executable>
rbdock ($Id: //depot/dev/client3/rdock/2013.1/src/exe/rbdock.cxx#4 $)

>  <Rbt.Library>
libRbt.so (2013.1, Build901 2013/11/27)

>  <Rbt.Parameter_File>
/export/apps/rDock/src/rDock_2013.1_src/data/scripts/dock_solv.prm

>  <Rbt.Receptor>
prm/pocket_docking_5.prm

>  <SCORE>
-40.0171

>  <SCORE.INTER>
-42.2996

>  <SCORE.INTER.CONST>
1

>  <SCORE.INTER.POLAR>
-2.63926

>  <SCORE.INTER.ROT>
10

>  <SCORE.INTER.SOLV>
15.4779

>  <SCORE.INTER.VDW>
-34.8281

>  <SCORE.INTER.norm>
-1.40999

>  <SCORE.INTRA>
1.95067

>  <SCORE.INTRA.DIHEDRAL>
-4.88

>  <SCORE.INTRA.DIHEDRAL.0>
18.0451

>  <SCORE.INTRA.POLAR>
0.196815

>  <SCORE.INTRA.POLAR.0>
-0.196815

>  <SCORE.INTRA.REPUL>
0

>  <SCORE.INTRA.REPUL.0>
0

>  <SCORE.INTRA.SOLV>
-0.649323

>  <SCORE.INTRA.SOLV.lig_0>
-14.7906

>  <SCORE.INTRA.VDW>
4.04616

>  <SCORE.INTRA.VDW.0>
-0.411701

>  <SCORE.INTRA.norm>
0.0650225

>  <SCORE.RESTR>
0.331751

>  <SCORE.RESTR.CAVITY>
0.331751

>  <SCORE.RESTR.norm>
0.0110584

>  <SCORE.SYSTEM>
0

>  <SCORE.SYSTEM.CONST>
0

>  <SCORE.SYSTEM.DIHEDRAL>
0

>  <SCORE.SYSTEM.SOLV>
0

>  <SCORE.SYSTEM.norm>
0

>  <SCORE.heavy>
30

>  <SCORE.norm>
-1.3339

>  <RMSD>
7.075

$$$$
1uts_lig
 OpenBabel11021811413D
libRbt.so/2013.1/901 2013/11/27
 30 33  0  0  0  0  0  0  0  0999 V2000
   -7.3470    4.2542   17.0699 N   0  0  0  0  0  0  0  0  0  0  0  0
   -5.0083    3.9031   16.4034 C   0  0  0  0  0  0  0  0  0  0  0  0
   -1.3028    2.7523   14.2343 C   0  0  0  0  0  0  0  0  0  0  0  0
   -4.0557    4.1523   15.2305 C   0  0  0  0  0  0  0  0  0  0  0  0
   -4.2263    3.1178   14.2504 O   0  0  0  0  0  0  0  0  0  0  0  0
   -6.4553    3.9981   15.9163 C   0  0  0  0  0  0  0  0  0  0  0  0
   -1.9587    1.5438   14.7833 N   0  0  0  0  0  0  0  0  0  0  0  0
   -1.4003    1.2376   16.1269 C   0  0  0  0  0  0  0  0  0  0  0  0
   -0.1180    0.4134   15.9792 C   0  0  0  0  0  0  0  0  0  0  0  0
   -0.4624   -0.9615   15.5525 N   0  0  0  0  0  0  0  0  0  0  0  0
   -1.1543   -1.6652   16.6705 C   0  0  0  0  0  0  0  0  0  0  0  0
    0.7823   -1.6874   15.1723 C   0  0  0  0  0  0  0  0  0  0  0  0
   -1.5103   -3.0950   16.2323 C   0  0  0  0  0  0  0  0  0  0  0  0
    0.4275   -3.1205   14.7368 C   0  0  0  0  0  0  0  0  0  0  0  0
   -0.2657   -3.8219   15.8530 N   0  0  0  0  0  0  0  0  0  0  0  0
   -3.4720    4.2486   10.7313 C   0  0  0  0  0  0  0  0  0  0  0  0
    0.6901    5.7176    6.0587 N   0  0  0  0  0  0  0  0  0  0  0  0
   -2.0646    4.1042   10.6886 C   0  0  0  0  0  0  0  0  0  0  0  0
   -1.3679    3.6192   11.8274 C   0  0  0  0  0  0  0  0  0  0  0  0
   -2.0798    3.2753   13.0092 C   0  0  0  0  0  0  0  0  0  0  0  0
   -3.4971    3.4371   13.0557 C   0  0  0  0  0  0  0  0  0  0  0  0
   -4.1896    3.9201   11.9116 C   0  0  0  0  0  0  0  0  0  0  0  0
    0.3228    7.0817    6.1031 C   0  0  0  0  0  0  0  0  0  0  0  0
   -0.5222    7.3418    7.2058 C   0  0  0  0  0  0  0  0  0  0  0  0
   -1.3993    5.7847    9.0416 C   0  0  0  0  0  0  0  0  0  0  0  0
   -1.3694    4.4467    9.5203 C   0  0  0  0  0  0  0  0  0  0  0  0
   -0.6277    3.4584    8.8165 C   0  0  0  0  0  0  0  0  0  0  0  0
    0.0842    3.8089    7.6375 C   0  0  0  0  0  0  0  0  0  0  0  0
    0.0634    5.1588    7.1661 C   0  0  0  0  0  0  0  0  0  0  0  0
   -0.6703    6.1378    7.8608 C   0  0  0  0  0  0  0  0  0  0  0  0
  1  6  1  0  0  0  0
  2  4  1  0  0  0  0
  3  7  1  0  0  0  0
  4  5  1  0  0  0  0
  6  2  1  0  0  0  0
  7  8  1  0  0  0  0
  8  9  1  0  0  0  0
  9 10  1  0  0  0  0
 10 11  1  0  0  0  0
 10 12  1  0  0  0  0
 11 13  1  0  0  0  0
 13 15  1  0  0  0  0
 14 12  1  0  0  0  0
 15 14  1  0  0  0  0
 16 18  2  0  0  0  0
 16 22  1  0  0  0  0
 17 23  1  0  0  0  0
 17 29  1  0  0  0  0
 18 19  1  0  0  0  0
 18 26  1  0  0  0  0
 19 20  2  0  0  0  0
 20  3  1  0  0  0  0
 20 21  1  0  0  0  0
 21  5  1  0  0  0  0
 21 22  2  0  0  0  0
 23 24  2  0  0  0  0
 24 30  1  0  0  0  0
 25 26  2  0  0  0  0
 25 30  1  0  0  0  0
 26 27  1  0  0  0  0
 27 28  2  0  0  0  0
 28 29  1  0  0  0  0
 29 30  2  0  0  0  0
M  END
>  <CHROM.1>
54.78772095,-63.54422454,-166.89058265,171.22879378,-159.43647685,-84.73351596
-72.34707957,-69.15721253,62.00308969,-132.95383406,76.40079661,-1.85801411
2.62924657,12.68652051,1.72950279,-0.70743373,2.31438789

>  <Name>
1uts_lig

>  <RI>
0

>  <Rbt.Current_Directory>
/home/itssahil/PROJECTS/Mol_Feturizer/New_Systems/rnas/1uts

>  <Rbt.Executable>
rbdock ($Id: //depot/dev/client3/rdock/2013.1/src/exe/rbdock.cxx#4 $)

>  <Rbt.Library>
libRbt.so (2013.1, Build901 2013/11/27)

>  <Rbt.Parameter_File>
/export/apps/rDock/src/rDock_2013.1_src/data/scripts/dock_solv.prm

>  <Rbt.Receptor>
prm/pocket_docking_8.prm

>  <SCORE>
-42.2973

>  <SCORE.INTER>
-39.2152

>  <SCORE.INTER.CONST>
1

>  <SCORE.INTER.POLAR>
-1.95959

>  <SCORE.INTER.ROT>
10

>  <SCORE.INTER.SOLV>
11.538

>  <SCORE.INTER.VDW>
-33.7242

>  <SCORE.INTER.norm>
-1.30717

>  <SCORE.INTRA>
-3.08208

>  <SCORE.INTRA.DIHEDRAL>
-4.61439

>  <SCORE.INTRA.DIHEDRAL.0>
18.0451

>  <SCORE.INTRA.POLAR>
-0.268782

>  <SCORE.INTRA.POLAR.0>
-0.196815

>  <SCORE.INTRA.REPUL>
0.00173019

>  <SCORE.INTRA.REPUL.0>
0

>  <SCORE.INTRA.SOLV>
-0.0432697

>  <SCORE.INTRA.SOLV.lig_0>
-14.7906

>  <SCORE.INTRA.VDW>
0.151956

>  <SCORE.INTRA.VDW.0>
-0.411701

>  <SCORE.INTRA.norm>
-0.102736

>  <SCORE.RESTR>
0

>  <SCORE.RESTR.CAVITY>
0

>  <SCORE.RESTR.norm>
0

>  <SCORE.SYSTEM>
0

>  <SCORE.SYSTEM.CONST>
0

>  <SCORE.SYSTEM.DIHEDRAL>
0

>  <SCORE.SYSTEM.SOLV>
0

>  <SCORE.SYSTEM.norm>
0

>  <SCORE.heavy>
30

>  <SCORE.norm>
-1.40991

>  <RMSD>
7.097

$$$$
1uts_lig
 OpenBabel11021811413D
libRbt.so/2013.1/901 2013/11/27
 30 33  0  0  0  0  0  0  0  0999 V2000
   -1.7480    4.9129   12.9999 N   0  0  0  0  0  0  0  0  0  0  0  0
   -1.6889    4.2531   15.3660 C   0  0  0  0  0  0  0  0  0  0  0  0
   -5.1481    0.7815   16.7295 C   0  0  0  0  0  0  0  0  0  0  0  0
   -3.1986    4.0747   15.5507 C   0  0  0  0  0  0  0  0  0  0  0  0
   -3.5672    2.7349   15.1914 O   0  0  0  0  0  0  0  0  0  0  0  0
   -1.2981    3.8614   13.9399 C   0  0  0  0  0  0  0  0  0  0  0  0
   -3.7360    0.5000   16.3850 N   0  0  0  0  0  0  0  0  0  0  0  0
   -3.5357   -0.9675   16.2526 C   0  0  0  0  0  0  0  0  0  0  0  0
   -2.2601   -1.2458   15.4521 C   0  0  0  0  0  0  0  0  0  0  0  0
   -1.0790   -0.8696   16.2610 N   0  0  0  0  0  0  0  0  0  0  0  0
   -0.0560   -0.2417   15.3761 C   0  0  0  0  0  0  0  0  0  0  0  0
   -0.5223   -2.0859   16.9180 C   0  0  0  0  0  0  0  0  0  0  0  0
    1.1741    0.1469   16.2123 C   0  0  0  0  0  0  0  0  0  0  0  0
    0.7117   -1.6985   17.7527 C   0  0  0  0  0  0  0  0  0  0  0  0
    1.7320   -1.0693   16.8687 N   0  0  0  0  0  0  0  0  0  0  0  0
   -6.9852    3.4190   13.7490 C   0  0  0  0  0  0  0  0  0  0  0  0
  -13.2771    1.9072   13.4297 N   0  0  0  0  0  0  0  0  0  0  0  0
   -7.7772    2.4814   14.4540 C   0  0  0  0  0  0  0  0  0  0  0  0
   -7.1755    1.6295   15.4182 C   0  0  0  0  0  0  0  0  0  0  0  0
   -5.7806    1.7174   15.6798 C   0  0  0  0  0  0  0  0  0  0  0  0
   -4.9810    2.6523   14.9560 C   0  0  0  0  0  0  0  0  0  0  0  0
   -5.5893    3.5047   13.9943 C   0  0  0  0  0  0  0  0  0  0  0  0
  -13.2887    0.4980   13.3217 C   0  0  0  0  0  0  0  0  0  0  0  0
  -11.9893   -0.0323   13.4891 C   0  0  0  0  0  0  0  0  0  0  0  0
   -9.7582    1.1337   13.9653 C   0  0  0  0  0  0  0  0  0  0  0  0
   -9.1516    2.3995   14.1897 C   0  0  0  0  0  0  0  0  0  0  0  0
   -9.9421    3.5810   14.1524 C   0  0  0  0  0  0  0  0  0  0  0  0
  -11.3368    3.4957   13.8935 C   0  0  0  0  0  0  0  0  0  0  0  0
  -11.9466    2.2196   13.6819 C   0  0  0  0  0  0  0  0  0  0  0  0
  -11.1660    1.0497   13.7178 C   0  0  0  0  0  0  0  0  0  0  0  0
  1  6  1  0  0  0  0
  2  4  1  0  0  0  0
  3  7  1  0  0  0  0
  4  5  1  0  0  0  0
  6  2  1  0  0  0  0
  7  8  1  0  0  0  0
  8  9  1  0  0  0  0
  9 10  1  0  0  0  0
 10 11  1  0  0  0  0
 10 12  1  0  0  0  0
 11 13  1  0  0  0  0
 13 15  1  0  0  0  0
 14 12  1  0  0  0  0
 15 14  1  0  0  0  0
 16 18  2  0  0  0  0
 16 22  1  0  0  0  0
 17 23  1  0  0  0  0
 17 29  1  0  0  0  0
 18 19  1  0  0  0  0
 18 26  1  0  0  0  0
 19 20  2  0  0  0  0
 20  3  1  0  0  0  0
 20 21  1  0  0  0  0
 21  5  1  0  0  0  0
 21 22  2  0  0  0  0
 23 24  2  0  0  0  0
 24 30  1  0  0  0  0
 25 26  2  0  0  0  0
 25 30  1  0  0  0  0
 26 27  1  0  0  0  0
 27 28  2  0  0  0  0
 28 29  1  0  0  0  0
 29 30  2  0  0  0  0
M  END
>  <CHROM.1>
89.42083726,54.38493472,-122.65745255,-162.25733566,73.56543983,160.77877937
69.92889321,-141.34739468,131.92857038,150.39156375,-124.01896407,-5.23896245
1.47598885,15.01426386,-0.21683168,-0.14979463,-0.34043315

>  <Name>
1uts_lig

>  <RI>
0

>  <Rbt.Current_Directory>
/home/itssahil/PROJECTS/Mol_Feturizer/New_Systems/rnas/1uts

>  <Rbt.Executable>
rbdock ($Id: //depot/dev/client3/rdock/2013.1/src/exe/rbdock.cxx#4 $)

>  <Rbt.Library>
libRbt.so (2013.1, Build901 2013/11/27)

>  <Rbt.Parameter_File>
/export/apps/rDock/src/rDock_2013.1_src/data/scripts/dock_solv.prm

>  <Rbt.Receptor>
prm/pocket_docking_8.prm

>  <SCORE>
-34.633

>  <SCORE.INTER>
-34.8068

>  <SCORE.INTER.CONST>
1

>  <SCORE.INTER.POLAR>
-2.81572

>  <SCORE.INTER.ROT>
10

>  <SCORE.INTER.SOLV>
8.51101

>  <SCORE.INTER.VDW>
-26.9224

>  <SCORE.INTER.norm>
-1.16023

>  <SCORE.INTRA>
0.173814

>  <SCORE.INTRA.DIHEDRAL>
-0.0868188

>  <SCORE.INTRA.DIHEDRAL.0>
18.0451

>  <SCORE.INTRA.POLAR>
-0.305349

>  <SCORE.INTRA.POLAR.0>
-0.196815

>  <SCORE.INTRA.REPUL>
0

>  <SCORE.INTRA.REPUL.0>
0

>  <SCORE.INTRA.SOLV>
0.307553

>  <SCORE.INTRA.SOLV.lig_0>
-14.7906

>  <SCORE.INTRA.VDW>
1.10164

>  <SCORE.INTRA.VDW.0>
-0.411701

>  <SCORE.INTRA.norm>
0.0057938

>  <SCORE.RESTR>
0

>  <SCORE.RESTR.CAVITY>
0

>  <SCORE.RESTR.norm>
0

>  <SCORE.SYSTEM>
0

>  <SCORE.SYSTEM.CONST>
0

>  <SCORE.SYSTEM.DIHEDRAL>
0

>  <SCORE.SYSTEM.SOLV>
0

>  <SCORE.SYSTEM.norm>
0

>  <SCORE.heavy>
30

>  <SCORE.norm>
-1.15443

>  <RMSD>
7.107

$$$$
1uts_lig
 OpenBabel11021811413D
libRbt.so/2013.1/901 2013/11/27
 30 33  0  0  0  0  0  0  0  0999 V2000
   -1.4248    4.9353   13.8076 N   0  0  0  0  0  0  0  0  0  0  0  0
   -3.1174    3.1947   14.1848 C   0  0  0  0  0  0  0  0  0  0  0  0
   -0.6989    0.1018   15.4698 C   0  0  0  0  0  0  0  0  0  0  0  0
   -3.0654    3.4314   15.6969 C   0  0  0  0  0  0  0  0  0  0  0  0
   -2.4645    2.2957   16.3362 O   0  0  0  0  0  0  0  0  0  0  0  0
   -1.7528    3.5114   13.5702 C   0  0  0  0  0  0  0  0  0  0  0  0
    0.4124   -0.8428   15.2152 N   0  0  0  0  0  0  0  0  0  0  0  0
   -0.0717   -2.2399   15.3731 C   0  0  0  0  0  0  0  0  0  0  0  0
    0.1778   -2.7154   16.8073 C   0  0  0  0  0  0  0  0  0  0  0  0
    1.6323   -2.8837   17.0245 N   0  0  0  0  0  0  0  0  0  0  0  0
    1.8961   -4.2533   17.5522 C   0  0  0  0  0  0  0  0  0  0  0  0
    2.1103   -1.8535   17.9895 C   0  0  0  0  0  0  0  0  0  0  0  0
    3.4056   -4.4305   17.7827 C   0  0  0  0  0  0  0  0  0  0  0  0
    3.6211   -2.0324   18.2239 C   0  0  0  0  0  0  0  0  0  0  0  0
    3.8840   -3.4013   18.7487 N   0  0  0  0  0  0  0  0  0  0  0  0
    0.8887    3.8668   17.0569 C   0  0  0  0  0  0  0  0  0  0  0  0
    7.2761    3.7819   17.3098 N   0  0  0  0  0  0  0  0  0  0  0  0
    1.7706    2.8303   16.6683 C   0  0  0  0  0  0  0  0  0  0  0  0
    1.2495    1.6126   16.1552 C   0  0  0  0  0  0  0  0  0  0  0  0
   -0.1552    1.4326   16.0278 C   0  0  0  0  0  0  0  0  0  0  0  0
   -1.0433    2.4729   16.4355 C   0  0  0  0  0  0  0  0  0  0  0  0
   -0.5158    3.6908   16.9455 C   0  0  0  0  0  0  0  0  0  0  0  0
    7.1726    5.1244   17.7397 C   0  0  0  0  0  0  0  0  0  0  0  0
    5.8230    5.5430   17.7688 C   0  0  0  0  0  0  0  0  0  0  0  0
    3.6680    4.2723   17.2161 C   0  0  0  0  0  0  0  0  0  0  0  0
    3.1544    3.0145   16.7982 C   0  0  0  0  0  0  0  0  0  0  0  0
    4.0457    1.9422   16.5191 C   0  0  0  0  0  0  0  0  0  0  0  0
    5.4476    2.1275   16.6601 C   0  0  0  0  0  0  0  0  0  0  0  0
    5.9604    3.3899   17.0941 C   0  0  0  0  0  0  0  0  0  0  0  0
    5.0802    4.4521   17.3701 C   0  0  0  0  0  0  0  0  0  0  0  0
  1  6  1  0  0  0  0
  2  4  1  0  0  0  0
  3  7  1  0  0  0  0
  4  5  1  0  0  0  0
  6  2  1  0  0  0  0
  7  8  1  0  0  0  0
  8  9  1  0  0  0  0
  9 10  1  0  0  0  0
 10 11  1  0  0  0  0
 10 12  1  0  0  0  0
 11 13  1  0  0  0  0
 13 15  1  0  0  0  0
 14 12  1  0  0  0  0
 15 14  1  0  0  0  0
 16 18  2  0  0  0  0
 16 22  1  0  0  0  0
 17 23  1  0  0  0  0
 17 29  1  0  0  0  0
 18 19  1  0  0  0  0
 18 26  1  0  0  0  0
 19 20  2  0  0  0  0
 20  3  1  0  0  0  0
 20 21  1  0  0  0  0
 21  5  1  0  0  0  0
 21 22  2  0  0  0  0
 23 24  2  0  0  0  0
 24 30  1  0  0  0  0
 25 26  2  0  0  0  0
 25 30  1  0  0  0  0
 26 27  1  0  0  0  0
 27 28  2  0  0  0  0
 28 29  1  0  0  0  0
 29 30  2  0  0  0  0
M  END
>  <CHROM.1>
-44.61633758,-80.83402728,150.72161756,90.36568268,-61.38277569,-92.93780386
-69.55688276,-126.98312227,-5.01254034,3.17786062,-131.33418206,1.74019500
1.31899676,16.55728107,-3.00386617,0.31342211,2.98534389

>  <Name>
1uts_lig

>  <RI>
0

>  <Rbt.Current_Directory>
/home/itssahil/PROJECTS/Mol_Feturizer/New_Systems/rnas/1uts

>  <Rbt.Executable>
rbdock ($Id: //depot/dev/client3/rdock/2013.1/src/exe/rbdock.cxx#4 $)

>  <Rbt.Library>
libRbt.so (2013.1, Build901 2013/11/27)

>  <Rbt.Parameter_File>
/export/apps/rDock/src/rDock_2013.1_src/data/scripts/dock_solv.prm

>  <Rbt.Receptor>
prm/pocket_docking_5.prm

>  <SCORE>
-25.5626

>  <SCORE.INTER>
-28.6573

>  <SCORE.INTER.CONST>
1

>  <SCORE.INTER.POLAR>
-2.81903

>  <SCORE.INTER.ROT>
10

>  <SCORE.INTER.SOLV>
6.61063

>  <SCORE.INTER.VDW>
-22.1783

>  <SCORE.INTER.norm>
-0.955242

>  <SCORE.INTRA>
3.09466

>  <SCORE.INTRA.DIHEDRAL>
-1.25418

>  <SCORE.INTRA.DIHEDRAL.0>
18.0451

>  <SCORE.INTRA.POLAR>
0.196815

>  <SCORE.INTRA.POLAR.0>
-0.196815

>  <SCORE.INTRA.REPUL>
0

>  <SCORE.INTRA.REPUL.0>
0

>  <SCORE.INTRA.SOLV>
0.160033

>  <SCORE.INTRA.SOLV.lig_0>
-14.7906

>  <SCORE.INTRA.VDW>
2.97256

>  <SCORE.INTRA.VDW.0>
-0.411701

>  <SCORE.INTRA.norm>
0.103155

>  <SCORE.RESTR>
0

>  <SCORE.RESTR.CAVITY>
0

>  <SCORE.RESTR.norm>
0

>  <SCORE.SYSTEM>
0

>  <SCORE.SYSTEM.CONST>
0

>  <SCORE.SYSTEM.DIHEDRAL>
0

>  <SCORE.SYSTEM.SOLV>
0

>  <SCORE.SYSTEM.norm>
0

>  <SCORE.heavy>
30

>  <SCORE.norm>
-0.852087

>  <RMSD>
7.150

$$$$
1uts_lig
 OpenBabel11021811413D
libRbt.so/2013.1/901 2013/11/27
 30 33  0  0  0  0  0  0  0  0999 V2000
   -1.8683    4.9032   13.1342 N   0  0  0  0  0  0  0  0  0  0  0  0
   -2.4108    2.8656   14.3956 C   0  0  0  0  0  0  0  0  0  0  0  0
    1.0252    0.2030   15.6913 C   0  0  0  0  0  0  0  0  0  0  0  0
   -1.8211    1.5734   14.9681 C   0  0  0  0  0  0  0  0  0  0  0  0
   -1.3655    1.8108   16.3083 O   0  0  0  0  0  0  0  0  0  0  0  0
   -1.2852    3.7381   13.8370 C   0  0  0  0  0  0  0  0  0  0  0  0
    2.2454   -0.4816   16.1756 N   0  0  0  0  0  0  0  0  0  0  0  0
    1.9873   -1.0791   17.5125 C   0  0  0  0  0  0  0  0  0  0  0  0
    1.2678   -2.4213   17.3497 C   0  0  0  0  0  0  0  0  0  0  0  0
    1.3802   -3.1960   18.6059 N   0  0  0  0  0  0  0  0  0  0  0  0
    2.4984   -4.1749   18.4822 C   0  0  0  0  0  0  0  0  0  0  0  0
    0.0952   -3.9044   18.8662 C   0  0  0  0  0  0  0  0  0  0  0  0
    2.6157   -4.9842   19.7839 C   0  0  0  0  0  0  0  0  0  0  0  0
    0.2127   -4.7182   20.1675 C   0  0  0  0  0  0  0  0  0  0  0  0
    1.3312   -5.6940   20.0442 N   0  0  0  0  0  0  0  0  0  0  0  0
    1.2773    4.4901   16.5699 C   0  0  0  0  0  0  0  0  0  0  0  0
    7.3807    6.4537   16.1463 N   0  0  0  0  0  0  0  0  0  0  0  0
    2.4520    3.7496   16.2960 C   0  0  0  0  0  0  0  0  0  0  0  0
    2.3632    2.3606   16.0125 C   0  0  0  0  0  0  0  0  0  0  0  0
    1.0978    1.7121   15.9999 C   0  0  0  0  0  0  0  0  0  0  0  0
   -0.0838    2.4573   16.2925 C   0  0  0  0  0  0  0  0  0  0  0  0
    0.0109    3.8481   16.5725 C   0  0  0  0  0  0  0  0  0  0  0  0
    7.2792    6.9291   14.8191 C   0  0  0  0  0  0  0  0  0  0  0  0
    6.0762    6.4949   14.2176 C   0  0  0  0  0  0  0  0  0  0  0  0
    4.1565    5.0799   15.1539 C   0  0  0  0  0  0  0  0  0  0  0  0
    3.6962    4.3955   16.3116 C   0  0  0  0  0  0  0  0  0  0  0  0
    4.4964    4.3732   17.4870 C   0  0  0  0  0  0  0  0  0  0  0  0
    5.7532    5.0362   17.5045 C   0  0  0  0  0  0  0  0  0  0  0  0
    6.2073    5.7356   16.3427 C   0  0  0  0  0  0  0  0  0  0  0  0
    5.4173    5.7582   15.1788 C   0  0  0  0  0  0  0  0  0  0  0  0
  1  6  1  0  0  0  0
  2  4  1  0  0  0  0
  3  7  1  0  0  0  0
  4  5  1  0  0  0  0
  6  2  1  0  0  0  0
  7  8  1  0  0  0  0
  8  9  1  0  0  0  0
  9 10  1  0  0  0  0
 10 11  1  0  0  0  0
 10 12  1  0  0  0  0
 11 13  1  0  0  0  0
 13 15  1  0  0  0  0
 14 12  1  0  0  0  0
 15 14  1  0  0  0  0
 16 18  2  0  0  0  0
 16 22  1  0  0  0  0
 17 23  1  0  0  0  0
 17 29  1  0  0  0  0
 18 19  1  0  0  0  0
 18 26  1  0  0  0  0
 19 20  2  0  0  0  0
 20  3  1  0  0  0  0
 20 21  1  0  0  0  0
 21  5  1  0  0  0  0
 21 22  2  0  0  0  0
 23 24  2  0  0  0  0
 24 30  1  0  0  0  0
 25 26  2  0  0  0  0
 25 30  1  0  0  0  0
 26 27  1  0  0  0  0
 27 28  2  0  0  0  0
 28 29  1  0  0  0  0
 29 30  2  0  0  0  0
M  END
>  <CHROM.1>
-66.52198659,83.67788000,96.78087589,-79.86810099,172.94190260,81.52304912
162.78126451,-97.87503893,-84.49546861,31.59383343,-76.33865102,2.01642901
1.62898028,16.55881312,1.22513740,-0.28771306,-0.44386775

>  <Name>
1uts_lig

>  <RI>
0

>  <Rbt.Current_Directory>
/home/itssahil/PROJECTS/Mol_Feturizer/New_Systems/rnas/1uts

>  <Rbt.Executable>
rbdock ($Id: //depot/dev/client3/rdock/2013.1/src/exe/rbdock.cxx#4 $)

>  <Rbt.Library>
libRbt.so (2013.1, Build901 2013/11/27)

>  <Rbt.Parameter_File>
/export/apps/rDock/src/rDock_2013.1_src/data/scripts/dock_solv.prm

>  <Rbt.Receptor>
prm/pocket_docking_8.prm

>  <SCORE>
-36.5063

>  <SCORE.INTER>
-40.1081

>  <SCORE.INTER.CONST>
1

>  <SCORE.INTER.POLAR>
-3.48366

>  <SCORE.INTER.ROT>
10

>  <SCORE.INTER.SOLV>
8.55485

>  <SCORE.INTER.VDW>
-28.2448

>  <SCORE.INTER.norm>
-1.33694

>  <SCORE.INTRA>
3.60176

>  <SCORE.INTRA.DIHEDRAL>
2.93716

>  <SCORE.INTRA.DIHEDRAL.0>
18.0451

>  <SCORE.INTRA.POLAR>
0.196815

>  <SCORE.INTRA.POLAR.0>
-0.196815

>  <SCORE.INTRA.REPUL>
0

>  <SCORE.INTRA.REPUL.0>
0

>  <SCORE.INTRA.SOLV>
-0.545518

>  <SCORE.INTRA.SOLV.lig_0>
-14.7906

>  <SCORE.INTRA.VDW>
1.73677

>  <SCORE.INTRA.VDW.0>
-0.411701

>  <SCORE.INTRA.norm>
0.120059

>  <SCORE.RESTR>
0

>  <SCORE.RESTR.CAVITY>
0

>  <SCORE.RESTR.norm>
0

>  <SCORE.SYSTEM>
0

>  <SCORE.SYSTEM.CONST>
0

>  <SCORE.SYSTEM.DIHEDRAL>
0

>  <SCORE.SYSTEM.SOLV>
0

>  <SCORE.SYSTEM.norm>
0

>  <SCORE.heavy>
30

>  <SCORE.norm>
-1.21688

>  <RMSD>
7.156

$$$$
1uts_lig
 OpenBabel11021811413D
libRbt.so/2013.1/901 2013/11/27
 30 33  0  0  0  0  0  0  0  0999 V2000
   -7.8353    4.2521   16.1708 N   0  0  0  0  0  0  0  0  0  0  0  0
   -6.3019    2.7286   15.0025 C   0  0  0  0  0  0  0  0  0  0  0  0
   -1.2668    1.9016   14.3306 C   0  0  0  0  0  0  0  0  0  0  0  0
   -5.0689    3.2111   15.7721 C   0  0  0  0  0  0  0  0  0  0  0  0
   -3.9041    3.0616   14.9470 O   0  0  0  0  0  0  0  0  0  0  0  0
   -7.5364    2.8276   15.9005 C   0  0  0  0  0  0  0  0  0  0  0  0
   -1.2106    0.5961   15.0268 N   0  0  0  0  0  0  0  0  0  0  0  0
    0.1888    0.3078   15.4384 C   0  0  0  0  0  0  0  0  0  0  0  0
    0.2016   -0.8173   16.4774 C   0  0  0  0  0  0  0  0  0  0  0  0
    1.6004   -1.2085   16.7626 N   0  0  0  0  0  0  0  0  0  0  0  0
    1.6089   -2.3012   17.7774 C   0  0  0  0  0  0  0  0  0  0  0  0
    2.3516   -0.0244   17.2671 C   0  0  0  0  0  0  0  0  0  0  0  0
    3.0604   -2.7076   18.0791 C   0  0  0  0  0  0  0  0  0  0  0  0
    3.8044   -0.4310   17.5730 C   0  0  0  0  0  0  0  0  0  0  0  0
    3.8120   -1.5240   18.5848 N   0  0  0  0  0  0  0  0  0  0  0  0
   -1.7504    5.1479   17.2362 C   0  0  0  0  0  0  0  0  0  0  0  0
    4.1437    6.5018   19.5829 N   0  0  0  0  0  0  0  0  0  0  0  0
   -0.4679    4.6059   16.9817 C   0  0  0  0  0  0  0  0  0  0  0  0
   -0.3183    3.5538   16.0393 C   0  0  0  0  0  0  0  0  0  0  0  0
   -1.4522    3.0452   15.3483 C   0  0  0  0  0  0  0  0  0  0  0  0
   -2.7468    3.5822   15.6184 C   0  0  0  0  0  0  0  0  0  0  0  0
   -2.8900    4.6374   16.5606 C   0  0  0  0  0  0  0  0  0  0  0  0
    5.0591    5.5982   18.9969 C   0  0  0  0  0  0  0  0  0  0  0  0
    4.3984    4.7062   18.1220 C   0  0  0  0  0  0  0  0  0  0  0  0
    1.9278    4.5327   17.4663 C   0  0  0  0  0  0  0  0  0  0  0  0
    0.6453    5.1114   17.6679 C   0  0  0  0  0  0  0  0  0  0  0  0
    0.4948    6.2078   18.5610 C   0  0  0  0  0  0  0  0  0  0  0  0
    1.6255    6.7252   19.2490 C   0  0  0  0  0  0  0  0  0  0  0  0
    2.9168    6.1498   19.0334 C   0  0  0  0  0  0  0  0  0  0  0  0
    3.0675    5.0647   18.1507 C   0  0  0  0  0  0  0  0  0  0  0  0
  1  6  1  0  0  0  0
  2  4  1  0  0  0  0
  3  7  1  0  0  0  0
  4  5  1  0  0  0  0
  6  2  1  0  0  0  0
  7  8  1  0  0  0  0
  8  9  1  0  0  0  0
  9 10  1  0  0  0  0
 10 11  1  0  0  0  0
 10 12  1  0  0  0  0
 11 13  1  0  0  0  0
 13 15  1  0  0  0  0
 14 12  1  0  0  0  0
 15 14  1  0  0  0  0
 16 18  2  0  0  0  0
 16 22  1  0  0  0  0
 17 23  1  0  0  0  0
 17 29  1  0  0  0  0
 18 19  1  0  0  0  0
 18 26  1  0  0  0  0
 19 20  2  0  0  0  0
 20  3  1  0  0  0  0
 20 21  1  0  0  0  0
 21  5  1  0  0  0  0
 21 22  2  0  0  0  0
 23 24  2  0  0  0  0
 24 30  1  0  0  0  0
 25 26  2  0  0  0  0
 25 30  1  0  0  0  0
 26 27  1  0  0  0  0
 27 28  2  0  0  0  0
 28 29  1  0  0  0  0
 29 30  2  0  0  0  0
M  END
>  <CHROM.1>
56.33523761,177.48571611,-87.21047724,176.56280643,67.26184655,164.32822465
173.32959185,179.83728659,177.06399810,81.97949212,151.13138136,-0.14278886
2.71823931,16.96228854,-3.07699025,0.31292606,-2.94662369

>  <Name>
1uts_lig

>  <RI>
0

>  <Rbt.Current_Directory>
/home/itssahil/PROJECTS/Mol_Feturizer/New_Systems/rnas/1uts

>  <Rbt.Executable>
rbdock ($Id: //depot/dev/client3/rdock/2013.1/src/exe/rbdock.cxx#4 $)

>  <Rbt.Library>
libRbt.so (2013.1, Build901 2013/11/27)

>  <Rbt.Parameter_File>
/export/apps/rDock/src/rDock_2013.1_src/data/scripts/dock_solv.prm

>  <Rbt.Receptor>
prm/pocket_docking_4.prm

>  <SCORE>
-28.9642

>  <SCORE.INTER>
-27.5981

>  <SCORE.INTER.CONST>
1

>  <SCORE.INTER.POLAR>
-2.48867

>  <SCORE.INTER.ROT>
10

>  <SCORE.INTER.SOLV>
6.44136

>  <SCORE.INTER.VDW>
-22.5169

>  <SCORE.INTER.norm>
-0.919936

>  <SCORE.INTRA>
-1.37513

>  <SCORE.INTRA.DIHEDRAL>
-13.5825

>  <SCORE.INTRA.DIHEDRAL.0>
18.0451

>  <SCORE.INTRA.POLAR>
0.196815

>  <SCORE.INTRA.POLAR.0>
-0.196815

>  <SCORE.INTRA.REPUL>
0

>  <SCORE.INTRA.REPUL.0>
0

>  <SCORE.INTRA.SOLV>
-0.496618

>  <SCORE.INTRA.SOLV.lig_0>
-14.7906

>  <SCORE.INTRA.VDW>
4.99525

>  <SCORE.INTRA.VDW.0>
-0.411701

>  <SCORE.INTRA.norm>
-0.0458377

>  <SCORE.RESTR>
0.00903039

>  <SCORE.RESTR.CAVITY>
0.00903039

>  <SCORE.RESTR.norm>
0.000301013

>  <SCORE.SYSTEM>
0

>  <SCORE.SYSTEM.CONST>
0

>  <SCORE.SYSTEM.DIHEDRAL>
0

>  <SCORE.SYSTEM.SOLV>
0

>  <SCORE.SYSTEM.norm>
0

>  <SCORE.heavy>
30

>  <SCORE.norm>
-0.965472

>  <RMSD>
7.162

$$$$
1uts_lig
 OpenBabel11021811413D
libRbt.so/2013.1/901 2013/11/27
 30 33  0  0  0  0  0  0  0  0999 V2000
   -2.4145    7.2675   11.6695 N   0  0  0  0  0  0  0  0  0  0  0  0
   -1.4532    5.0063   11.6652 C   0  0  0  0  0  0  0  0  0  0  0  0
    0.9714    4.2125   15.6917 C   0  0  0  0  0  0  0  0  0  0  0  0
   -2.2654    4.5750   12.8898 C   0  0  0  0  0  0  0  0  0  0  0  0
   -1.4418    4.6617   14.0620 O   0  0  0  0  0  0  0  0  0  0  0  0
   -2.2475    6.0380   10.8622 C   0  0  0  0  0  0  0  0  0  0  0  0
    0.5527    4.9998   16.8736 N   0  0  0  0  0  0  0  0  0  0  0  0
    1.0980    4.3771   18.1089 C   0  0  0  0  0  0  0  0  0  0  0  0
    0.9372    5.3403   19.2887 C   0  0  0  0  0  0  0  0  0  0  0  0
    2.2428    5.5146   19.9638 N   0  0  0  0  0  0  0  0  0  0  0  0
    3.2234    6.0895   18.9985 C   0  0  0  0  0  0  0  0  0  0  0  0
    2.7197    4.1949   20.4657 C   0  0  0  0  0  0  0  0  0  0  0  0
    4.5820    6.2684   19.6952 C   0  0  0  0  0  0  0  0  0  0  0  0
    4.0819    4.3722   21.1603 C   0  0  0  0  0  0  0  0  0  0  0  0
    5.0600    4.9486   20.1963 N   0  0  0  0  0  0  0  0  0  0  0  0
   -1.9090    1.0091   14.8814 C   0  0  0  0  0  0  0  0  0  0  0  0
   -0.0600   -4.3959   17.8210 N   0  0  0  0  0  0  0  0  0  0  0  0
   -0.7525    0.7474   15.6544 C   0  0  0  0  0  0  0  0  0  0  0  0
    0.1770    1.7899   15.9127 C   0  0  0  0  0  0  0  0  0  0  0  0
   -0.0519    3.0963   15.4001 C   0  0  0  0  0  0  0  0  0  0  0  0
   -1.2104    3.3540   14.6073 C   0  0  0  0  0  0  0  0  0  0  0  0
   -2.1390    2.3073   14.3545 C   0  0  0  0  0  0  0  0  0  0  0  0
   -0.9024   -4.2277   18.9434 C   0  0  0  0  0  0  0  0  0  0  0  0
   -1.4467   -2.9238   18.9758 C   0  0  0  0  0  0  0  0  0  0  0  0
   -1.1612   -0.9543   17.3621 C   0  0  0  0  0  0  0  0  0  0  0  0
   -0.5328   -0.5435   16.1552 C   0  0  0  0  0  0  0  0  0  0  0  0
    0.3131   -1.4460   15.4536 C   0  0  0  0  0  0  0  0  0  0  0  0
    0.5277   -2.7573   15.9575 C   0  0  0  0  0  0  0  0  0  0  0  0
   -0.1171   -3.1723   17.1646 C   0  0  0  0  0  0  0  0  0  0  0  0
   -0.9538   -2.2806   17.8604 C   0  0  0  0  0  0  0  0  0  0  0  0
  1  6  1  0  0  0  0
  2  4  1  0  0  0  0
  3  7  1  0  0  0  0
  4  5  1  0  0  0  0
  6  2  1  0  0  0  0
  7  8  1  0  0  0  0
  8  9  1  0  0  0  0
  9 10  1  0  0  0  0
 10 11  1  0  0  0  0
 10 12  1  0  0  0  0
 11 13  1  0  0  0  0
 13 15  1  0  0  0  0
 14 12  1  0  0  0  0
 15 14  1  0  0  0  0
 16 18  2  0  0  0  0
 16 22  1  0  0  0  0
 17 23  1  0  0  0  0
 17 29  1  0  0  0  0
 18 19  1  0  0  0  0
 18 26  1  0  0  0  0
 19 20  2  0  0  0  0
 20  3  1  0  0  0  0
 20 21  1  0  0  0  0
 21  5  1  0  0  0  0
 21 22  2  0  0  0  0
 23 24  2  0  0  0  0
 24 30  1  0  0  0  0
 25 26  2  0  0  0  0
 25 30  1  0  0  0  0
 26 27  1  0  0  0  0
 27 28  2  0  0  0  0
 28 29  1  0  0  0  0
 29 30  2  0  0  0  0
M  END
>  <CHROM.1>
65.48997450,-130.29672661,88.70219131,-113.97837410,65.17651836,167.53023547
-127.52394473,60.73415723,-83.06640695,-95.31315905,154.95265959,0.22818905
2.44025120,16.60252648,1.31515797,-0.92593865,-0.35664383

>  <Name>
1uts_lig

>  <RI>
0

>  <Rbt.Current_Directory>
/home/itssahil/PROJECTS/Mol_Feturizer/New_Systems/rnas/1uts

>  <Rbt.Executable>
rbdock ($Id: //depot/dev/client3/rdock/2013.1/src/exe/rbdock.cxx#4 $)

>  <Rbt.Library>
libRbt.so (2013.1, Build901 2013/11/27)

>  <Rbt.Parameter_File>
/export/apps/rDock/src/rDock_2013.1_src/data/scripts/dock_solv.prm

>  <Rbt.Receptor>
prm/pocket_docking_6.prm

>  <SCORE>
-21.96

>  <SCORE.INTER>
-31.464

>  <SCORE.INTER.CONST>
1

>  <SCORE.INTER.POLAR>
-3.22237

>  <SCORE.INTER.ROT>
10

>  <SCORE.INTER.SOLV>
8.64128

>  <SCORE.INTER.VDW>
-23.3819

>  <SCORE.INTER.norm>
-1.0488

>  <SCORE.INTRA>
9.50405

>  <SCORE.INTRA.DIHEDRAL>
7.90912

>  <SCORE.INTRA.DIHEDRAL.0>
18.0451

>  <SCORE.INTRA.POLAR>
0.196815

>  <SCORE.INTRA.POLAR.0>
-0.196815

>  <SCORE.INTRA.REPUL>
0

>  <SCORE.INTRA.REPUL.0>
0

>  <SCORE.INTRA.SOLV>
-0.242775

>  <SCORE.INTRA.SOLV.lig_0>
-14.7906

>  <SCORE.INTRA.VDW>
5.00171

>  <SCORE.INTRA.VDW.0>
-0.411701

>  <SCORE.INTRA.norm>
0.316802

>  <SCORE.RESTR>
0

>  <SCORE.RESTR.CAVITY>
0

>  <SCORE.RESTR.norm>
0

>  <SCORE.SYSTEM>
0

>  <SCORE.SYSTEM.CONST>
0

>  <SCORE.SYSTEM.DIHEDRAL>
0

>  <SCORE.SYSTEM.SOLV>
0

>  <SCORE.SYSTEM.norm>
0

>  <SCORE.heavy>
30

>  <SCORE.norm>
-0.732

>  <RMSD>
7.294

$$$$
1uts_lig
 OpenBabel11021811413D
libRbt.so/2013.1/901 2013/11/27
 30 33  0  0  0  0  0  0  0  0999 V2000
   -2.0385    0.6814   15.2897 N   0  0  0  0  0  0  0  0  0  0  0  0
   -3.5219    2.2030   16.5232 C   0  0  0  0  0  0  0  0  0  0  0  0
   -0.7293    4.4095   15.3328 C   0  0  0  0  0  0  0  0  0  0  0  0
   -4.4052    3.4467   16.3884 C   0  0  0  0  0  0  0  0  0  0  0  0
   -3.5964    4.5646   15.9934 O   0  0  0  0  0  0  0  0  0  0  0  0
   -2.7634    1.9701   15.2153 C   0  0  0  0  0  0  0  0  0  0  0  0
    0.2796    3.3308   15.4356 N   0  0  0  0  0  0  0  0  0  0  0  0
    1.5742    3.8980   15.8974 C   0  0  0  0  0  0  0  0  0  0  0  0
    2.6698    2.8321   15.8028 C   0  0  0  0  0  0  0  0  0  0  0  0
    2.3530    1.7171   16.7232 N   0  0  0  0  0  0  0  0  0  0  0  0
    3.6226    1.1078   17.2139 C   0  0  0  0  0  0  0  0  0  0  0  0
    1.5323    0.7014   16.0051 C   0  0  0  0  0  0  0  0  0  0  0  0
    3.2975   -0.0534   18.1674 C   0  0  0  0  0  0  0  0  0  0  0  0
    1.2092   -0.4637   16.9578 C   0  0  0  0  0  0  0  0  0  0  0  0
    2.4777   -1.0701   17.4493 N   0  0  0  0  0  0  0  0  0  0  0  0
   -2.1300    5.5314   19.3321 C   0  0  0  0  0  0  0  0  0  0  0  0
    3.1353    6.5582   22.9793 N   0  0  0  0  0  0  0  0  0  0  0  0
   -0.7433    5.4510   19.0604 C   0  0  0  0  0  0  0  0  0  0  0  0
   -0.2962    5.0865   17.7624 C   0  0  0  0  0  0  0  0  0  0  0  0
   -1.2371    4.8050   16.7341 C   0  0  0  0  0  0  0  0  0  0  0  0
   -2.6350    4.8707   17.0147 C   0  0  0  0  0  0  0  0  0  0  0  0
   -3.0767    5.2392   18.3150 C   0  0  0  0  0  0  0  0  0  0  0  0
    4.2705    6.2685   22.1886 C   0  0  0  0  0  0  0  0  0  0  0  0
    3.8904    5.8464   20.8944 C   0  0  0  0  0  0  0  0  0  0  0  0
    1.5714    5.5822   19.8377 C   0  0  0  0  0  0  0  0  0  0  0  0
    0.1784    5.7286   20.0797 C   0  0  0  0  0  0  0  0  0  0  0  0
   -0.2778    6.1635   21.3544 C   0  0  0  0  0  0  0  0  0  0  0  0
    0.6580    6.4534   22.3839 C   0  0  0  0  0  0  0  0  0  0  0  0
    2.0594    6.3185   22.1331 C   0  0  0  0  0  0  0  0  0  0  0  0
    2.5126    5.8878   20.8727 C   0  0  0  0  0  0  0  0  0  0  0  0
  1  6  1  0  0  0  0
  2  4  1  0  0  0  0
  3  7  1  0  0  0  0
  4  5  1  0  0  0  0
  6  2  1  0  0  0  0
  7  8  1  0  0  0  0
  8  9  1  0  0  0  0
  9 10  1  0  0  0  0
 10 11  1  0  0  0  0
 10 12  1  0  0  0  0
 11 13  1  0  0  0  0
 13 15  1  0  0  0  0
 14 12  1  0  0  0  0
 15 14  1  0  0  0  0
 16 18  2  0  0  0  0
 16 22  1  0  0  0  0
 17 23  1  0  0  0  0
 17 29  1  0  0  0  0
 18 19  1  0  0  0  0
 18 26  1  0  0  0  0
 19 20  2  0  0  0  0
 20  3  1  0  0  0  0
 20 21  1  0  0  0  0
 21  5  1  0  0  0  0
 21 22  2  0  0  0  0
 23 24  2  0  0  0  0
 24 30  1  0  0  0  0
 25 26  2  0  0  0  0
 25 30  1  0  0  0  0
 26 27  1  0  0  0  0
 27 28  2  0  0  0  0
 28 29  1  0  0  0  0
 29 30  2  0  0  0  0
M  END
>  <CHROM.1>
53.12984991,-55.23038070,-76.19405580,-63.75673260,-173.22077013,-171.51076907
-63.70694065,-149.02894036,176.66577708,49.80151607,119.17296421,0.31800783
3.69793340,18.06674586,-2.06639668,-0.40176557,0.72902458

>  <Name>
1uts_lig

>  <RI>
0

>  <Rbt.Current_Directory>
/home/itssahil/PROJECTS/Mol_Feturizer/New_Systems/rnas/1uts

>  <Rbt.Executable>
rbdock ($Id: //depot/dev/client3/rdock/2013.1/src/exe/rbdock.cxx#4 $)

>  <Rbt.Library>
libRbt.so (2013.1, Build901 2013/11/27)

>  <Rbt.Parameter_File>
/export/apps/rDock/src/rDock_2013.1_src/data/scripts/dock_solv.prm

>  <Rbt.Receptor>
prm/pocket_docking_6.prm

>  <SCORE>
-21.5096

>  <SCORE.INTER>
-19.3889

>  <SCORE.INTER.CONST>
1

>  <SCORE.INTER.POLAR>
-1.77943

>  <SCORE.INTER.ROT>
10

>  <SCORE.INTER.SOLV>
5.22458

>  <SCORE.INTER.VDW>
-19.0027

>  <SCORE.INTER.norm>
-0.646298

>  <SCORE.INTRA>
-2.12067

>  <SCORE.INTRA.DIHEDRAL>
-10.5264

>  <SCORE.INTRA.DIHEDRAL.0>
18.0451

>  <SCORE.INTRA.POLAR>
0.196815

>  <SCORE.INTRA.POLAR.0>
-0.196815

>  <SCORE.INTRA.REPUL>
0

>  <SCORE.INTRA.REPUL.0>
0

>  <SCORE.INTRA.SOLV>
0.4042

>  <SCORE.INTRA.SOLV.lig_0>
-14.7906

>  <SCORE.INTRA.VDW>
2.27125

>  <SCORE.INTRA.VDW.0>
-0.411701

>  <SCORE.INTRA.norm>
-0.0706889

>  <SCORE.RESTR>
0

>  <SCORE.RESTR.CAVITY>
0

>  <SCORE.RESTR.norm>
0

>  <SCORE.SYSTEM>
0

>  <SCORE.SYSTEM.CONST>
0

>  <SCORE.SYSTEM.DIHEDRAL>
0

>  <SCORE.SYSTEM.SOLV>
0

>  <SCORE.SYSTEM.norm>
0

>  <SCORE.heavy>
30

>  <SCORE.norm>
-0.716987

>  <RMSD>
7.332

$$$$
1uts_lig
 OpenBabel11021811413D
libRbt.so/2013.1/901 2013/11/27
 30 33  0  0  0  0  0  0  0  0999 V2000
    1.1046    2.7258    7.8725 N   0  0  0  0  0  0  0  0  0  0  0  0
   -0.6219    4.4136    8.3285 C   0  0  0  0  0  0  0  0  0  0  0  0
   -1.7011    4.4423   12.9788 C   0  0  0  0  0  0  0  0  0  0  0  0
   -1.7463    3.9401    9.2542 C   0  0  0  0  0  0  0  0  0  0  0  0
   -2.1339    5.0160   10.1214 O   0  0  0  0  0  0  0  0  0  0  0  0
   -0.1953    3.2648    7.4129 C   0  0  0  0  0  0  0  0  0  0  0  0
   -1.4343    3.2407   13.8017 N   0  0  0  0  0  0  0  0  0  0  0  0
   -0.8579    3.6478   15.1105 C   0  0  0  0  0  0  0  0  0  0  0  0
    0.6654    3.4940   15.0758 C   0  0  0  0  0  0  0  0  0  0  0  0
    1.2628    4.2529   16.1974 N   0  0  0  0  0  0  0  0  0  0  0  0
    2.7494    4.1807   16.1042 C   0  0  0  0  0  0  0  0  0  0  0  0
    0.7940    3.6765   17.4892 C   0  0  0  0  0  0  0  0  0  0  0  0
    3.3735    4.9647   17.2700 C   0  0  0  0  0  0  0  0  0  0  0  0
    1.4213    4.4585   18.6574 C   0  0  0  0  0  0  0  0  0  0  0  0
    2.9060    4.3879   18.5623 N   0  0  0  0  0  0  0  0  0  0  0  0
   -5.6615    4.1334   11.1257 C   0  0  0  0  0  0  0  0  0  0  0  0
   -9.8128    2.2966   15.7550 N   0  0  0  0  0  0  0  0  0  0  0  0
   -5.4926    3.8316   12.4981 C   0  0  0  0  0  0  0  0  0  0  0  0
   -4.2064    3.9333   13.0922 C   0  0  0  0  0  0  0  0  0  0  0  0
   -3.0885    4.3403   12.3135 C   0  0  0  0  0  0  0  0  0  0  0  0
   -3.2580    4.6283   10.9259 C   0  0  0  0  0  0  0  0  0  0  0  0
   -4.5484    4.5278   10.3373 C   0  0  0  0  0  0  0  0  0  0  0  0
   -9.1494    2.4231   16.9967 C   0  0  0  0  0  0  0  0  0  0  0  0
   -7.8062    2.8231   16.8134 C   0  0  0  0  0  0  0  0  0  0  0  0
   -6.4976    3.3505   14.6748 C   0  0  0  0  0  0  0  0  0  0  0  0
   -6.5992    3.4296   13.2592 C   0  0  0  0  0  0  0  0  0  0  0  0
   -7.8266    3.1071   12.6175 C   0  0  0  0  0  0  0  0  0  0  0  0
   -8.9503    2.7086   13.3909 C   0  0  0  0  0  0  0  0  0  0  0  0
   -8.8490    2.6435   14.8158 C   0  0  0  0  0  0  0  0  0  0  0  0
   -7.6354    2.9616   15.4524 C   0  0  0  0  0  0  0  0  0  0  0  0
  1  6  1  0  0  0  0
  2  4  1  0  0  0  0
  3  7  1  0  0  0  0
  4  5  1  0  0  0  0
  6  2  1  0  0  0  0
  7  8  1  0  0  0  0
  8  9  1  0  0  0  0
  9 10  1  0  0  0  0
 10 11  1  0  0  0  0
 10 12  1  0  0  0  0
 11 13  1  0  0  0  0
 13 15  1  0  0  0  0
 14 12  1  0  0  0  0
 15 14  1  0  0  0  0
 16 18  2  0  0  0  0
 16 22  1  0  0  0  0
 17 23  1  0  0  0  0
 17 29  1  0  0  0  0
 18 19  1  0  0  0  0
 18 26  1  0  0  0  0
 19 20  2  0  0  0  0
 20  3  1  0  0  0  0
 20 21  1  0  0  0  0
 21  5  1  0  0  0  0
 21 22  2  0  0  0  0
 23 24  2  0  0  0  0
 24 30  1  0  0  0  0
 25 26  2  0  0  0  0
 25 30  1  0  0  0  0
 26 27  1  0  0  0  0
 27 28  2  0  0  0  0
 28 29  1  0  0  0  0
 29 30  2  0  0  0  0
M  END
>  <CHROM.1>
155.46891420,179.38123767,-135.48274564,175.44860199,-105.21495731,-98.70741438
163.58854024,-176.02927689,-168.98511368,46.19521041,106.38381199,-2.90675898
3.71173353,13.60068596,-0.07925462,-0.11792661,-1.54828300

>  <Name>
1uts_lig

>  <RI>
0

>  <Rbt.Current_Directory>
/home/itssahil/PROJECTS/Mol_Feturizer/New_Systems/rnas/1uts

>  <Rbt.Executable>
rbdock ($Id: //depot/dev/client3/rdock/2013.1/src/exe/rbdock.cxx#4 $)

>  <Rbt.Library>
libRbt.so (2013.1, Build901 2013/11/27)

>  <Rbt.Parameter_File>
/export/apps/rDock/src/rDock_2013.1_src/data/scripts/dock_solv.prm

>  <Rbt.Receptor>
prm/pocket_docking_8.prm

>  <SCORE>
-36.8963

>  <SCORE.INTER>
-40.6285

>  <SCORE.INTER.CONST>
1

>  <SCORE.INTER.POLAR>
-3.35723

>  <SCORE.INTER.ROT>
10

>  <SCORE.INTER.SOLV>
12.3039

>  <SCORE.INTER.VDW>
-30.2629

>  <SCORE.INTER.norm>
-1.35428

>  <SCORE.INTRA>
3.72765

>  <SCORE.INTRA.DIHEDRAL>
-0.0125578

>  <SCORE.INTRA.DIHEDRAL.0>
18.0451

>  <SCORE.INTRA.POLAR>
0.196815

>  <SCORE.INTRA.POLAR.0>
-0.196815

>  <SCORE.INTRA.REPUL>
0

>  <SCORE.INTRA.REPUL.0>
0

>  <SCORE.INTRA.SOLV>
-0.610314

>  <SCORE.INTRA.SOLV.lig_0>
-14.7906

>  <SCORE.INTRA.VDW>
3.36992

>  <SCORE.INTRA.VDW.0>
-0.411701

>  <SCORE.INTRA.norm>
0.124255

>  <SCORE.RESTR>
0.00457455

>  <SCORE.RESTR.CAVITY>
0.00457455

>  <SCORE.RESTR.norm>
0.000152485

>  <SCORE.SYSTEM>
0

>  <SCORE.SYSTEM.CONST>
0

>  <SCORE.SYSTEM.DIHEDRAL>
0

>  <SCORE.SYSTEM.SOLV>
0

>  <SCORE.SYSTEM.norm>
0

>  <SCORE.heavy>
30

>  <SCORE.norm>
-1.22988

>  <RMSD>
7.337

$$$$
1uts_lig
 OpenBabel11021811413D
libRbt.so/2013.1/901 2013/11/27
 30 33  0  0  0  0  0  0  0  0999 V2000
   -0.3570    3.6913    8.2498 N   0  0  0  0  0  0  0  0  0  0  0  0
   -0.6474    6.0356    8.9258 C   0  0  0  0  0  0  0  0  0  0  0  0
   -1.3464    4.4362   13.5158 C   0  0  0  0  0  0  0  0  0  0  0  0
   -1.7524    5.8783    9.9743 C   0  0  0  0  0  0  0  0  0  0  0  0
   -1.6454    4.5855   10.5885 O   0  0  0  0  0  0  0  0  0  0  0  0
   -0.8546    5.0133    7.8069 C   0  0  0  0  0  0  0  0  0  0  0  0
   -0.8966    3.1717   14.1410 N   0  0  0  0  0  0  0  0  0  0  0  0
    0.1515    3.4597   15.1556 C   0  0  0  0  0  0  0  0  0  0  0  0
   -0.5042    3.9158   16.4623 C   0  0  0  0  0  0  0  0  0  0  0  0
    0.3695    4.9046   17.1330 N   0  0  0  0  0  0  0  0  0  0  0  0
    1.5817    4.2134   17.6593 C   0  0  0  0  0  0  0  0  0  0  0  0
   -0.3818    5.5548   18.2437 C   0  0  0  0  0  0  0  0  0  0  0  0
    2.4899    5.2367   18.3601 C   0  0  0  0  0  0  0  0  0  0  0  0
    0.5280    6.5771   18.9487 C   0  0  0  0  0  0  0  0  0  0  0  0
    1.7395    5.8865   19.4718 N   0  0  0  0  0  0  0  0  0  0  0  0
   -5.2183    3.8463   11.5474 C   0  0  0  0  0  0  0  0  0  0  0  0
   -9.8228    2.5629   15.7921 N   0  0  0  0  0  0  0  0  0  0  0  0
   -5.1137    3.7485   12.9555 C   0  0  0  0  0  0  0  0  0  0  0  0
   -3.8560    3.9404   13.5869 C   0  0  0  0  0  0  0  0  0  0  0  0
   -2.7021    4.2334   12.8094 C   0  0  0  0  0  0  0  0  0  0  0  0
   -2.8066    4.3154   11.3883 C   0  0  0  0  0  0  0  0  0  0  0  0
   -4.0689    4.1255   10.7620 C   0  0  0  0  0  0  0  0  0  0  0  0
  -10.7199    2.7051   14.7091 C   0  0  0  0  0  0  0  0  0  0  0  0
  -10.0340    3.0763   13.5304 C   0  0  0  0  0  0  0  0  0  0  0  0
   -7.5386    3.4701   13.1037 C   0  0  0  0  0  0  0  0  0  0  0  0
   -6.2555    3.4579   13.7153 C   0  0  0  0  0  0  0  0  0  0  0  0
   -6.1317    3.1438   15.0967 C   0  0  0  0  0  0  0  0  0  0  0  0
   -7.2889    2.8403   15.8637 C   0  0  0  0  0  0  0  0  0  0  0  0
   -8.5769    2.8398   15.2423 C   0  0  0  0  0  0  0  0  0  0  0  0
   -8.7015    3.1509   13.8759 C   0  0  0  0  0  0  0  0  0  0  0  0
  1  6  1  0  0  0  0
  2  4  1  0  0  0  0
  3  7  1  0  0  0  0
  4  5  1  0  0  0  0
  6  2  1  0  0  0  0
  7  8  1  0  0  0  0
  8  9  1  0  0  0  0
  9 10  1  0  0  0  0
 10 11  1  0  0  0  0
 10 12  1  0  0  0  0
 11 13  1  0  0  0  0
 13 15  1  0  0  0  0
 14 12  1  0  0  0  0
 15 14  1  0  0  0  0
 16 18  2  0  0  0  0
 16 22  1  0  0  0  0
 17 23  1  0  0  0  0
 17 29  1  0  0  0  0
 18 19  1  0  0  0  0
 18 26  1  0  0  0  0
 19 20  2  0  0  0  0
 20  3  1  0  0  0  0
 20 21  1  0  0  0  0
 21  5  1  0  0  0  0
 21 22  2  0  0  0  0
 23 24  2  0  0  0  0
 24 30  1  0  0  0  0
 25 26  2  0  0  0  0
 25 30  1  0  0  0  0
 26 27  1  0  0  0  0
 27 28  2  0  0  0  0
 28 29  1  0  0  0  0
 29 30  2  0  0  0  0
M  END
>  <CHROM.1>
129.87416002,63.99298182,-162.21262409,-169.27474452,-79.28667119,81.03535973
-146.74962137,-70.65609095,-9.84964494,66.11149828,-112.33428772,-3.14690688
4.16041293,13.96599956,-0.29094764,-0.21382852,-1.56237813

>  <Name>
1uts_lig

>  <RI>
0

>  <Rbt.Current_Directory>
/home/itssahil/PROJECTS/Mol_Feturizer/New_Systems/rnas/1uts

>  <Rbt.Executable>
rbdock ($Id: //depot/dev/client3/rdock/2013.1/src/exe/rbdock.cxx#4 $)

>  <Rbt.Library>
libRbt.so (2013.1, Build901 2013/11/27)

>  <Rbt.Parameter_File>
/export/apps/rDock/src/rDock_2013.1_src/data/scripts/dock_solv.prm

>  <Rbt.Receptor>
prm/pocket_docking_6.prm

>  <SCORE>
-39.2661

>  <SCORE.INTER>
-40.3228

>  <SCORE.INTER.CONST>
1

>  <SCORE.INTER.POLAR>
-2.4511

>  <SCORE.INTER.ROT>
10

>  <SCORE.INTER.SOLV>
10.9151

>  <SCORE.INTER.VDW>
-32.6166

>  <SCORE.INTER.norm>
-1.34409

>  <SCORE.INTRA>
1.05677

>  <SCORE.INTRA.DIHEDRAL>
-2.55907

>  <SCORE.INTRA.DIHEDRAL.0>
18.0451

>  <SCORE.INTRA.POLAR>
-0.118702

>  <SCORE.INTRA.POLAR.0>
-0.196815

>  <SCORE.INTRA.REPUL>
0

>  <SCORE.INTRA.REPUL.0>
0

>  <SCORE.INTRA.SOLV>
-0.0912516

>  <SCORE.INTRA.SOLV.lig_0>
-14.7906

>  <SCORE.INTRA.VDW>
2.78552

>  <SCORE.INTRA.VDW.0>
-0.411701

>  <SCORE.INTRA.norm>
0.0352256

>  <SCORE.RESTR>
0

>  <SCORE.RESTR.CAVITY>
0

>  <SCORE.RESTR.norm>
0

>  <SCORE.SYSTEM>
0

>  <SCORE.SYSTEM.CONST>
0

>  <SCORE.SYSTEM.DIHEDRAL>
0

>  <SCORE.SYSTEM.SOLV>
0

>  <SCORE.SYSTEM.norm>
0

>  <SCORE.heavy>
30

>  <SCORE.norm>
-1.30887

>  <RMSD>
7.363

$$$$
1uts_lig
 OpenBabel11021811413D
libRbt.so/2013.1/901 2013/11/27
 30 33  0  0  0  0  0  0  0  0999 V2000
    2.8610   -0.2625   16.5491 N   0  0  0  0  0  0  0  0  0  0  0  0
    0.7478    0.2174   17.7073 C   0  0  0  0  0  0  0  0  0  0  0  0
   -2.1463    4.7256   17.4459 C   0  0  0  0  0  0  0  0  0  0  0  0
   -0.6573    0.7954   17.5155 C   0  0  0  0  0  0  0  0  0  0  0  0
   -0.5832    2.2285   17.4893 O   0  0  0  0  0  0  0  0  0  0  0  0
    1.5855    0.4828   16.4550 C   0  0  0  0  0  0  0  0  0  0  0  0
   -3.3106    4.1234   18.1342 N   0  0  0  0  0  0  0  0  0  0  0  0
   -4.5572    4.4589   17.3963 C   0  0  0  0  0  0  0  0  0  0  0  0
   -4.8721    3.3549   16.3828 C   0  0  0  0  0  0  0  0  0  0  0  0
   -6.0773    3.7266   15.6080 N   0  0  0  0  0  0  0  0  0  0  0  0
   -7.2954    3.3688   16.3904 C   0  0  0  0  0  0  0  0  0  0  0  0
   -6.0673    3.0068   14.3031 C   0  0  0  0  0  0  0  0  0  0  0  0
   -8.5494    3.7500   15.5870 C   0  0  0  0  0  0  0  0  0  0  0  0
   -7.3245    3.3849   13.4993 C   0  0  0  0  0  0  0  0  0  0  0  0
   -8.5406    3.0295   14.2823 N   0  0  0  0  0  0  0  0  0  0  0  0
   -1.2226    2.5043   13.7816 C   0  0  0  0  0  0  0  0  0  0  0  0
   -4.1004    5.4905    8.8266 N   0  0  0  0  0  0  0  0  0  0  0  0
   -1.9920    3.6907   13.7197 C   0  0  0  0  0  0  0  0  0  0  0  0
   -2.2881    4.4054   14.9110 C   0  0  0  0  0  0  0  0  0  0  0  0
   -1.8114    3.9347   16.1652 C   0  0  0  0  0  0  0  0  0  0  0  0
   -1.0496    2.7293   16.2273 C   0  0  0  0  0  0  0  0  0  0  0  0
   -0.7537    2.0198   15.0312 C   0  0  0  0  0  0  0  0  0  0  0  0
   -5.4340    5.0781    9.0485 C   0  0  0  0  0  0  0  0  0  0  0  0
   -5.5624    4.4357   10.3009 C   0  0  0  0  0  0  0  0  0  0  0  0
   -3.8255    3.9735   12.1267 C   0  0  0  0  0  0  0  0  0  0  0  0
   -2.4597    4.1478   12.4796 C   0  0  0  0  0  0  0  0  0  0  0  0
   -1.5708    4.7926   11.5761 C   0  0  0  0  0  0  0  0  0  0  0  0
   -2.0482    5.2638   10.3232 C   0  0  0  0  0  0  0  0  0  0  0  0
   -3.4259    5.0993    9.9769 C   0  0  0  0  0  0  0  0  0  0  0  0
   -4.3066    4.4611   10.8693 C   0  0  0  0  0  0  0  0  0  0  0  0
  1  6  1  0  0  0  0
  2  4  1  0  0  0  0
  3  7  1  0  0  0  0
  4  5  1  0  0  0  0
  6  2  1  0  0  0  0
  7  8  1  0  0  0  0
  8  9  1  0  0  0  0
  9 10  1  0  0  0  0
 10 11  1  0  0  0  0
 10 12  1  0  0  0  0
 11 13  1  0  0  0  0
 13 15  1  0  0  0  0
 14 12  1  0  0  0  0
 15 14  1  0  0  0  0
 16 18  2  0  0  0  0
 16 22  1  0  0  0  0
 17 23  1  0  0  0  0
 17 29  1  0  0  0  0
 18 19  1  0  0  0  0
 18 26  1  0  0  0  0
 19 20  2  0  0  0  0
 20  3  1  0  0  0  0
 20 21  1  0  0  0  0
 21  5  1  0  0  0  0
 21 22  2  0  0  0  0
 23 24  2  0  0  0  0
 24 30  1  0  0  0  0
 25 26  2  0  0  0  0
 25 30  1  0  0  0  0
 26 27  1  0  0  0  0
 27 28  2  0  0  0  0
 28 29  1  0  0  0  0
 29 30  2  0  0  0  0
M  END
>  <CHROM.1>
85.80552136,-68.39203547,-74.78639445,118.68188945,-170.81210605,92.16123717
-177.31959583,-82.50031523,104.11069604,97.77017126,142.37952168,-3.22674749
3.35744958,14.45089842,-0.77350400,0.22661449,-1.27929734

>  <Name>
1uts_lig

>  <RI>
0

>  <Rbt.Current_Directory>
/home/itssahil/PROJECTS/Mol_Feturizer/New_Systems/rnas/1uts

>  <Rbt.Executable>
rbdock ($Id: //depot/dev/client3/rdock/2013.1/src/exe/rbdock.cxx#4 $)

>  <Rbt.Library>
libRbt.so (2013.1, Build901 2013/11/27)

>  <Rbt.Parameter_File>
/export/apps/rDock/src/rDock_2013.1_src/data/scripts/dock_solv.prm

>  <Rbt.Receptor>
prm/pocket_docking_4.prm

>  <SCORE>
-26.1619

>  <SCORE.INTER>
-28.4746

>  <SCORE.INTER.CONST>
1

>  <SCORE.INTER.POLAR>
-0.761849

>  <SCORE.INTER.ROT>
10

>  <SCORE.INTER.SOLV>
10.207

>  <SCORE.INTER.VDW>
-30.1126

>  <SCORE.INTER.norm>
-0.949153

>  <SCORE.INTRA>
2.09083

>  <SCORE.INTRA.DIHEDRAL>
1.87967

>  <SCORE.INTRA.DIHEDRAL.0>
18.0451

>  <SCORE.INTRA.POLAR>
0.196815

>  <SCORE.INTRA.POLAR.0>
-0.196815

>  <SCORE.INTRA.REPUL>
0

>  <SCORE.INTRA.REPUL.0>
0

>  <SCORE.INTRA.SOLV>
-0.328589

>  <SCORE.INTRA.SOLV.lig_0>
-14.7906

>  <SCORE.INTRA.VDW>
0.646123

>  <SCORE.INTRA.VDW.0>
-0.411701

>  <SCORE.INTRA.norm>
0.0696945

>  <SCORE.RESTR>
0.221864

>  <SCORE.RESTR.CAVITY>
0.221864

>  <SCORE.RESTR.norm>
0.00739548

>  <SCORE.SYSTEM>
0

>  <SCORE.SYSTEM.CONST>
0

>  <SCORE.SYSTEM.DIHEDRAL>
0

>  <SCORE.SYSTEM.SOLV>
0

>  <SCORE.SYSTEM.norm>
0

>  <SCORE.heavy>
30

>  <SCORE.norm>
-0.872063

>  <RMSD>
7.447

$$$$
1uts_lig
 OpenBabel11021811413D
libRbt.so/2013.1/901 2013/11/27
 30 33  0  0  0  0  0  0  0  0999 V2000
   -1.1133    7.9406   10.1322 N   0  0  0  0  0  0  0  0  0  0  0  0
   -2.1522    5.7784    9.6003 C   0  0  0  0  0  0  0  0  0  0  0  0
   -1.9501    3.8027   13.7816 C   0  0  0  0  0  0  0  0  0  0  0  0
   -2.6327    5.4431   11.0152 C   0  0  0  0  0  0  0  0  0  0  0  0
   -3.0532    4.0717   11.0627 O   0  0  0  0  0  0  0  0  0  0  0  0
   -0.8387    6.5588    9.6776 C   0  0  0  0  0  0  0  0  0  0  0  0
   -1.6269    3.0576   15.0195 N   0  0  0  0  0  0  0  0  0  0  0  0
   -1.6285    3.9882   16.1791 C   0  0  0  0  0  0  0  0  0  0  0  0
   -0.3123    3.8561   16.9509 C   0  0  0  0  0  0  0  0  0  0  0  0
   -0.3838    4.6644   18.1888 N   0  0  0  0  0  0  0  0  0  0  0  0
    0.3287    5.9569   17.9748 C   0  0  0  0  0  0  0  0  0  0  0  0
    0.2393    3.9066   19.3105 C   0  0  0  0  0  0  0  0  0  0  0  0
    0.2598    6.7977   19.2599 C   0  0  0  0  0  0  0  0  0  0  0  0
    0.1742    4.7491   20.5972 C   0  0  0  0  0  0  0  0  0  0  0  0
    0.8839    6.0407   20.3819 N   0  0  0  0  0  0  0  0  0  0  0  0
   -6.2562    3.5769   12.9934 C   0  0  0  0  0  0  0  0  0  0  0  0
   -9.3249    2.2696   18.5100 N   0  0  0  0  0  0  0  0  0  0  0  0
   -5.7652    3.4247   14.3121 C   0  0  0  0  0  0  0  0  0  0  0  0
   -4.3687    3.4985   14.5605 C   0  0  0  0  0  0  0  0  0  0  0  0
   -3.4623    3.7279   13.4891 C   0  0  0  0  0  0  0  0  0  0  0  0
   -3.9582    3.8649   12.1578 C   0  0  0  0  0  0  0  0  0  0  0  0
   -5.3575    3.7932   11.9156 C   0  0  0  0  0  0  0  0  0  0  0  0
   -9.3624    0.8686   18.3270 C   0  0  0  0  0  0  0  0  0  0  0  0
   -8.5570    0.4803   17.2324 C   0  0  0  0  0  0  0  0  0  0  0  0
   -7.1013    1.8758   15.6520 C   0  0  0  0  0  0  0  0  0  0  0  0
   -6.6648    3.1973   15.3631 C   0  0  0  0  0  0  0  0  0  0  0  0
   -7.1365    4.2867   16.1461 C   0  0  0  0  0  0  0  0  0  0  0  0
   -8.0411    4.0537   17.2170 C   0  0  0  0  0  0  0  0  0  0  0  0
   -8.4676    2.7214   17.5139 C   0  0  0  0  0  0  0  0  0  0  0  0
   -8.0025    1.6425   16.7400 C   0  0  0  0  0  0  0  0  0  0  0  0
  1  6  1  0  0  0  0
  2  4  1  0  0  0  0
  3  7  1  0  0  0  0
  4  5  1  0  0  0  0
  6  2  1  0  0  0  0
  7  8  1  0  0  0  0
  8  9  1  0  0  0  0
  9 10  1  0  0  0  0
 10 11  1  0  0  0  0
 10 12  1  0  0  0  0
 11 13  1  0  0  0  0
 13 15  1  0  0  0  0
 14 12  1  0  0  0  0
 15 14  1  0  0  0  0
 16 18  2  0  0  0  0
 16 22  1  0  0  0  0
 17 23  1  0  0  0  0
 17 29  1  0  0  0  0
 18 19  1  0  0  0  0
 18 26  1  0  0  0  0
 19 20  2  0  0  0  0
 20  3  1  0  0  0  0
 20 21  1  0  0  0  0
 21  5  1  0  0  0  0
 21 22  2  0  0  0  0
 23 24  2  0  0  0  0
 24 30  1  0  0  0  0
 25 26  2  0  0  0  0
 25 30  1  0  0  0  0
 26 27  1  0  0  0  0
 27 28  2  0  0  0  0
 28 29  1  0  0  0  0
 29 30  2  0  0  0  0
M  END
>  <CHROM.1>
-148.77091503,-134.79214187,-93.89460852,-157.76374512,-73.75324370,-127.41807680
-173.40347661,-99.94099385,85.12785332,24.65930033,-78.93459412,-3.67606251
4.08045156,15.36853898,0.34287808,-0.38704554,-1.41357881

>  <Name>
1uts_lig

>  <RI>
0

>  <Rbt.Current_Directory>
/home/itssahil/PROJECTS/Mol_Feturizer/New_Systems/rnas/1uts

>  <Rbt.Executable>
rbdock ($Id: //depot/dev/client3/rdock/2013.1/src/exe/rbdock.cxx#4 $)

>  <Rbt.Library>
libRbt.so (2013.1, Build901 2013/11/27)

>  <Rbt.Parameter_File>
/export/apps/rDock/src/rDock_2013.1_src/data/scripts/dock_solv.prm

>  <Rbt.Receptor>
prm/pocket_docking_7.prm

>  <SCORE>
-18.8318

>  <SCORE.INTER>
-25.2302

>  <SCORE.INTER.CONST>
1

>  <SCORE.INTER.POLAR>
-1.68495

>  <SCORE.INTER.ROT>
10

>  <SCORE.INTER.SOLV>
10.6685

>  <SCORE.INTER.VDW>
-25.0264

>  <SCORE.INTER.norm>
-0.841005

>  <SCORE.INTRA>
6.38194

>  <SCORE.INTRA.DIHEDRAL>
10.094

>  <SCORE.INTRA.DIHEDRAL.0>
18.0451

>  <SCORE.INTRA.POLAR>
0.196815

>  <SCORE.INTRA.POLAR.0>
-0.196815

>  <SCORE.INTRA.REPUL>
0

>  <SCORE.INTRA.REPUL.0>
0

>  <SCORE.INTRA.SOLV>
-0.582756

>  <SCORE.INTRA.SOLV.lig_0>
-14.7906

>  <SCORE.INTRA.VDW>
0.957125

>  <SCORE.INTRA.VDW.0>
-0.411701

>  <SCORE.INTRA.norm>
0.212731

>  <SCORE.RESTR>
0.0164607

>  <SCORE.RESTR.CAVITY>
0.0164607

>  <SCORE.RESTR.norm>
0.00054869

>  <SCORE.SYSTEM>
0

>  <SCORE.SYSTEM.CONST>
0

>  <SCORE.SYSTEM.DIHEDRAL>
0

>  <SCORE.SYSTEM.SOLV>
0

>  <SCORE.SYSTEM.norm>
0

>  <SCORE.heavy>
30

>  <SCORE.norm>
-0.627725

>  <RMSD>
7.554

$$$$
1uts_lig
 OpenBabel11021811413D
libRbt.so/2013.1/901 2013/11/27
 30 33  0  0  0  0  0  0  0  0999 V2000
   -4.6022    4.2146   16.7512 N   0  0  0  0  0  0  0  0  0  0  0  0
   -3.3951    3.8919   14.6355 C   0  0  0  0  0  0  0  0  0  0  0  0
    1.4328    4.1665   15.7733 C   0  0  0  0  0  0  0  0  0  0  0  0
   -2.3649    3.0114   15.3488 C   0  0  0  0  0  0  0  0  0  0  0  0
   -1.0987    3.1255   14.6829 O   0  0  0  0  0  0  0  0  0  0  0  0
   -4.7457    3.7759   15.3446 C   0  0  0  0  0  0  0  0  0  0  0  0
    0.5864    4.8966   16.7442 N   0  0  0  0  0  0  0  0  0  0  0  0
    1.3945    5.2625   17.9375 C   0  0  0  0  0  0  0  0  0  0  0  0
    0.8061    4.5972   19.1852 C   0  0  0  0  0  0  0  0  0  0  0  0
    1.0590    3.1397   19.1319 N   0  0  0  0  0  0  0  0  0  0  0  0
    0.1525    2.4473   20.0925 C   0  0  0  0  0  0  0  0  0  0  0  0
    2.4840    2.8725   19.4767 C   0  0  0  0  0  0  0  0  0  0  0  0
    0.4150    0.9334   20.0427 C   0  0  0  0  0  0  0  0  0  0  0  0
    2.7471    1.3565   19.4309 C   0  0  0  0  0  0  0  0  0  0  0  0
    1.8397    0.6655   20.3887 N   0  0  0  0  0  0  0  0  0  0  0  0
    0.4807   -0.1122   15.8028 C   0  0  0  0  0  0  0  0  0  0  0  0
    5.2142   -3.5289   18.4132 N   0  0  0  0  0  0  0  0  0  0  0  0
    1.7160    0.3455   16.3203 C   0  0  0  0  0  0  0  0  0  0  0  0
    2.0184    1.7332   16.3073 C   0  0  0  0  0  0  0  0  0  0  0  0
    1.0829    2.6646   15.7789 C   0  0  0  0  0  0  0  0  0  0  0  0
   -0.1553    2.1994   15.2426 C   0  0  0  0  0  0  0  0  0  0  0  0
   -0.4538    0.8093   15.2612 C   0  0  0  0  0  0  0  0  0  0  0  0
    4.2268   -4.4554   18.8184 C   0  0  0  0  0  0  0  0  0  0  0  0
    2.9304   -3.9676   18.5370 C   0  0  0  0  0  0  0  0  0  0  0  0
    2.1708   -1.7848   17.4316 C   0  0  0  0  0  0  0  0  0  0  0  0
    2.6340   -0.5790   16.8383 C   0  0  0  0  0  0  0  0  0  0  0  0
    4.0295   -0.3155   16.7650 C   0  0  0  0  0  0  0  0  0  0  0  0
    4.9594   -1.2576   17.2821 C   0  0  0  0  0  0  0  0  0  0  0  0
    4.4908   -2.4761   17.8658 C   0  0  0  0  0  0  0  0  0  0  0  0
    3.1105   -2.7382   17.9398 C   0  0  0  0  0  0  0  0  0  0  0  0
  1  6  1  0  0  0  0
  2  4  1  0  0  0  0
  3  7  1  0  0  0  0
  4  5  1  0  0  0  0
  6  2  1  0  0  0  0
  7  8  1  0  0  0  0
  8  9  1  0  0  0  0
  9 10  1  0  0  0  0
 10 11  1  0  0  0  0
 10 12  1  0  0  0  0
 11 13  1  0  0  0  0
 13 15  1  0  0  0  0
 14 12  1  0  0  0  0
 15 14  1  0  0  0  0
 16 18  2  0  0  0  0
 16 22  1  0  0  0  0
 17 23  1  0  0  0  0
 17 29  1  0  0  0  0
 18 19  1  0  0  0  0
 18 26  1  0  0  0  0
 19 20  2  0  0  0  0
 20  3  1  0  0  0  0
 20 21  1  0  0  0  0
 21  5  1  0  0  0  0
 21 22  2  0  0  0  0
 23 24  2  0  0  0  0
 24 30  1  0  0  0  0
 25 26  2  0  0  0  0
 25 30  1  0  0  0  0
 26 27  1  0  0  0  0
 27 28  2  0  0  0  0
 28 29  1  0  0  0  0
 29 30  2  0  0  0  0
M  END
>  <CHROM.1>
51.65041984,-179.85232390,105.96469766,-173.71420632,59.69822008,-118.71384343
70.87175548,-162.75661887,-29.91140955,-110.40320836,-123.05253640,1.07368791
1.28538776,17.34842794,2.65315023,-0.72028877,0.56732454

>  <Name>
1uts_lig

>  <RI>
0

>  <Rbt.Current_Directory>
/home/itssahil/PROJECTS/Mol_Feturizer/New_Systems/rnas/1uts

>  <Rbt.Executable>
rbdock ($Id: //depot/dev/client3/rdock/2013.1/src/exe/rbdock.cxx#4 $)

>  <Rbt.Library>
libRbt.so (2013.1, Build901 2013/11/27)

>  <Rbt.Parameter_File>
/export/apps/rDock/src/rDock_2013.1_src/data/scripts/dock_solv.prm

>  <Rbt.Receptor>
prm/pocket_docking_4.prm

>  <SCORE>
-19.511

>  <SCORE.INTER>
-16.7031

>  <SCORE.INTER.CONST>
1

>  <SCORE.INTER.POLAR>
-0.894427

>  <SCORE.INTER.ROT>
10

>  <SCORE.INTER.SOLV>
5.87597

>  <SCORE.INTER.VDW>
-20.3793

>  <SCORE.INTER.norm>
-0.556771

>  <SCORE.INTRA>
-2.82361

>  <SCORE.INTRA.DIHEDRAL>
-4.58946

>  <SCORE.INTRA.DIHEDRAL.0>
18.0451

>  <SCORE.INTRA.POLAR>
0.196815

>  <SCORE.INTRA.POLAR.0>
-0.196815

>  <SCORE.INTRA.REPUL>
0

>  <SCORE.INTRA.REPUL.0>
0

>  <SCORE.INTRA.SOLV>
0.320709

>  <SCORE.INTRA.SOLV.lig_0>
-14.7906

>  <SCORE.INTRA.VDW>
-1.3584

>  <SCORE.INTRA.VDW.0>
-0.411701

>  <SCORE.INTRA.norm>
-0.0941202

>  <SCORE.RESTR>
0.0157551

>  <SCORE.RESTR.CAVITY>
0.0157551

>  <SCORE.RESTR.norm>
0.00052517

>  <SCORE.SYSTEM>
0

>  <SCORE.SYSTEM.CONST>
0

>  <SCORE.SYSTEM.DIHEDRAL>
0

>  <SCORE.SYSTEM.SOLV>
0

>  <SCORE.SYSTEM.norm>
0

>  <SCORE.heavy>
30

>  <SCORE.norm>
-0.650366

>  <RMSD>
7.737

$$$$
1uts_lig
 OpenBabel11021811413D
libRbt.so/2013.1/901 2013/11/27
 30 33  0  0  0  0  0  0  0  0999 V2000
   -7.1587    3.6654   14.2485 N   0  0  0  0  0  0  0  0  0  0  0  0
   -4.8263    4.0281   14.9307 C   0  0  0  0  0  0  0  0  0  0  0  0
   -0.9158    5.1600   18.0500 C   0  0  0  0  0  0  0  0  0  0  0  0
   -3.7073    3.5208   15.8450 C   0  0  0  0  0  0  0  0  0  0  0  0
   -2.5724    4.3928   15.7374 O   0  0  0  0  0  0  0  0  0  0  0  0
   -6.0904    3.1978   15.1605 C   0  0  0  0  0  0  0  0  0  0  0  0
    0.2210    6.0934   18.2189 N   0  0  0  0  0  0  0  0  0  0  0  0
    1.2633    5.4639   19.0723 C   0  0  0  0  0  0  0  0  0  0  0  0
    2.5973    6.1918   18.8822 C   0  0  0  0  0  0  0  0  0  0  0  0
    3.6510    5.4997   19.6578 N   0  0  0  0  0  0  0  0  0  0  0  0
    3.7919    4.1016   19.1585 C   0  0  0  0  0  0  0  0  0  0  0  0
    3.2834    5.5016   21.1020 C   0  0  0  0  0  0  0  0  0  0  0  0
    4.8830    3.3783   19.9644 C   0  0  0  0  0  0  0  0  0  0  0  0
    4.3734    4.7743   21.9096 C   0  0  0  0  0  0  0  0  0  0  0  0
    4.5152    3.3788   21.4088 N   0  0  0  0  0  0  0  0  0  0  0  0
    0.2236    1.8877   15.3651 C   0  0  0  0  0  0  0  0  0  0  0  0
    5.7091   -0.7997   17.3268 N   0  0  0  0  0  0  0  0  0  0  0  0
    1.0565    2.2367   16.4549 C   0  0  0  0  0  0  0  0  0  0  0  0
    0.6816    3.2984   17.3208 C   0  0  0  0  0  0  0  0  0  0  0  0
   -0.5293    4.0098   17.0983 C   0  0  0  0  0  0  0  0  0  0  0  0
   -1.3597    3.6669   15.9892 C   0  0  0  0  0  0  0  0  0  0  0  0
   -0.9808    2.6012   15.1276 C   0  0  0  0  0  0  0  0  0  0  0  0
    5.0672   -1.9862   17.7487 C   0  0  0  0  0  0  0  0  0  0  0  0
    3.6634   -1.8226   17.7653 C   0  0  0  0  0  0  0  0  0  0  0  0
    2.2093    0.1928   17.1424 C   0  0  0  0  0  0  0  0  0  0  0  0
    2.2496    1.5318   16.6671 C   0  0  0  0  0  0  0  0  0  0  0  0
    3.5012    2.1521   16.4007 C   0  0  0  0  0  0  0  0  0  0  0  0
    4.7096    1.4333   16.6075 C   0  0  0  0  0  0  0  0  0  0  0  0
    4.6653    0.0817   17.0725 C   0  0  0  0  0  0  0  0  0  0  0  0
    3.4280   -0.5335   17.3371 C   0  0  0  0  0  0  0  0  0  0  0  0
  1  6  1  0  0  0  0
  2  4  1  0  0  0  0
  3  7  1  0  0  0  0
  4  5  1  0  0  0  0
  6  2  1  0  0  0  0
  7  8  1  0  0  0  0
  8  9  1  0  0  0  0
  9 10  1  0  0  0  0
 10 11  1  0  0  0  0
 10 12  1  0  0  0  0
 11 13  1  0  0  0  0
 13 15  1  0  0  0  0
 14 12  1  0  0  0  0
 15 14  1  0  0  0  0
 16 18  2  0  0  0  0
 16 22  1  0  0  0  0
 17 23  1  0  0  0  0
 17 29  1  0  0  0  0
 18 19  1  0  0  0  0
 18 26  1  0  0  0  0
 19 20  2  0  0  0  0
 20  3  1  0  0  0  0
 20 21  1  0  0  0  0
 21  5  1  0  0  0  0
 21 22  2  0  0  0  0
 23 24  2  0  0  0  0
 24 30  1  0  0  0  0
 25 26  2  0  0  0  0
 25 30  1  0  0  0  0
 26 27  1  0  0  0  0
 27 28  2  0  0  0  0
 28 29  1  0  0  0  0
 29 30  2  0  0  0  0
M  END
>  <CHROM.1>
178.66690486,-173.58806590,-73.24228934,-151.06295042,-178.41668701,161.51203989
-175.89961508,60.99219358,-71.55910361,49.84580832,-117.36812723,1.17156861
2.97588225,17.52299553,-3.11732506,-0.43435497,0.54457426

>  <Name>
1uts_lig

>  <RI>
0

>  <Rbt.Current_Directory>
/home/itssahil/PROJECTS/Mol_Feturizer/New_Systems/rnas/1uts

>  <Rbt.Executable>
rbdock ($Id: //depot/dev/client3/rdock/2013.1/src/exe/rbdock.cxx#4 $)

>  <Rbt.Library>
libRbt.so (2013.1, Build901 2013/11/27)

>  <Rbt.Parameter_File>
/export/apps/rDock/src/rDock_2013.1_src/data/scripts/dock_solv.prm

>  <Rbt.Receptor>
prm/pocket_docking_2.prm

>  <SCORE>
-16.3859

>  <SCORE.INTER>
-18.2099

>  <SCORE.INTER.CONST>
1

>  <SCORE.INTER.POLAR>
-1.82058

>  <SCORE.INTER.ROT>
10

>  <SCORE.INTER.SOLV>
6.53807

>  <SCORE.INTER.VDW>
-18.5173

>  <SCORE.INTER.norm>
-0.606996

>  <SCORE.INTRA>
1.2829

>  <SCORE.INTRA.DIHEDRAL>
-4.39332

>  <SCORE.INTRA.DIHEDRAL.0>
18.0451

>  <SCORE.INTRA.POLAR>
0.196815

>  <SCORE.INTRA.POLAR.0>
-0.196815

>  <SCORE.INTRA.REPUL>
0

>  <SCORE.INTRA.REPUL.0>
0

>  <SCORE.INTRA.SOLV>
-0.539377

>  <SCORE.INTRA.SOLV.lig_0>
-14.7906

>  <SCORE.INTRA.VDW>
3.08008

>  <SCORE.INTRA.VDW.0>
-0.411701

>  <SCORE.INTRA.norm>
0.0427633

>  <SCORE.RESTR>
0.541135

>  <SCORE.RESTR.CAVITY>
0.541135

>  <SCORE.RESTR.norm>
0.0180378

>  <SCORE.SYSTEM>
0

>  <SCORE.SYSTEM.CONST>
0

>  <SCORE.SYSTEM.DIHEDRAL>
0

>  <SCORE.SYSTEM.SOLV>
0

>  <SCORE.SYSTEM.norm>
0

>  <SCORE.heavy>
30

>  <SCORE.norm>
-0.546195

>  <RMSD>
7.786

$$$$
1uts_lig
 OpenBabel11021811413D
libRbt.so/2013.1/901 2013/11/27
 30 33  0  0  0  0  0  0  0  0999 V2000
    1.5693    3.9205   17.7682 N   0  0  0  0  0  0  0  0  0  0  0  0
   -0.0677    5.7523   17.8154 C   0  0  0  0  0  0  0  0  0  0  0  0
   -4.0322    3.1818   16.9082 C   0  0  0  0  0  0  0  0  0  0  0  0
   -1.2664    4.9034   18.2486 C   0  0  0  0  0  0  0  0  0  0  0  0
   -1.2028    3.6242   17.6010 O   0  0  0  0  0  0  0  0  0  0  0  0
    1.2102    5.1896   18.4404 C   0  0  0  0  0  0  0  0  0  0  0  0
   -4.7504    4.4030   17.3382 N   0  0  0  0  0  0  0  0  0  0  0  0
   -5.9815    4.0246   18.0812 C   0  0  0  0  0  0  0  0  0  0  0  0
   -7.2182    4.3987   17.2590 C   0  0  0  0  0  0  0  0  0  0  0  0
   -7.3640    3.4523   16.1302 N   0  0  0  0  0  0  0  0  0  0  0  0
   -6.6484    3.9929   14.9388 C   0  0  0  0  0  0  0  0  0  0  0  0
   -8.8109    3.2643   15.8268 C   0  0  0  0  0  0  0  0  0  0  0  0
   -6.8009    3.0143   13.7631 C   0  0  0  0  0  0  0  0  0  0  0  0
   -8.9648    2.2874   14.6471 C   0  0  0  0  0  0  0  0  0  0  0  0
   -8.2478    2.8269   13.4584 N   0  0  0  0  0  0  0  0  0  0  0  0
   -1.0277    4.1655   13.8717 C   0  0  0  0  0  0  0  0  0  0  0  0
   -3.5979    4.2758    8.0161 N   0  0  0  0  0  0  0  0  0  0  0  0
   -2.3737    3.9428   13.4950 C   0  0  0  0  0  0  0  0  0  0  0  0
   -3.3421    3.6240   14.4839 C   0  0  0  0  0  0  0  0  0  0  0  0
   -2.9645    3.5308   15.8516 C   0  0  0  0  0  0  0  0  0  0  0  0
   -1.6035    3.7397   16.2273 C   0  0  0  0  0  0  0  0  0  0  0  0
   -0.6391    4.0617   15.2334 C   0  0  0  0  0  0  0  0  0  0  0  0
   -2.2684    4.3674    7.5451 C   0  0  0  0  0  0  0  0  0  0  0  0
   -1.3499    4.3560    8.6193 C   0  0  0  0  0  0  0  0  0  0  0  0
   -1.7363    4.1701   11.1452 C   0  0  0  0  0  0  0  0  0  0  0  0
   -2.7382    4.0350   12.1443 C   0  0  0  0  0  0  0  0  0  0  0  0
   -4.1096    3.9865   11.7711 C   0  0  0  0  0  0  0  0  0  0  0  0
   -4.4772    4.0707   10.4009 C   0  0  0  0  0  0  0  0  0  0  0  0
   -3.4661    4.1927    9.3970 C   0  0  0  0  0  0  0  0  0  0  0  0
   -2.1089    4.2414    9.7644 C   0  0  0  0  0  0  0  0  0  0  0  0
  1  6  1  0  0  0  0
  2  4  1  0  0  0  0
  3  7  1  0  0  0  0
  4  5  1  0  0  0  0
  6  2  1  0  0  0  0
  7  8  1  0  0  0  0
  8  9  1  0  0  0  0
  9 10  1  0  0  0  0
 10 11  1  0  0  0  0
 10 12  1  0  0  0  0
 11 13  1  0  0  0  0
 13 15  1  0  0  0  0
 14 12  1  0  0  0  0
 15 14  1  0  0  0  0
 16 18  2  0  0  0  0
 16 22  1  0  0  0  0
 17 23  1  0  0  0  0
 17 29  1  0  0  0  0
 18 19  1  0  0  0  0
 18 26  1  0  0  0  0
 19 20  2  0  0  0  0
 20  3  1  0  0  0  0
 20 21  1  0  0  0  0
 21  5  1  0  0  0  0
 21 22  2  0  0  0  0
 23 24  2  0  0  0  0
 24 30  1  0  0  0  0
 25 26  2  0  0  0  0
 25 30  1  0  0  0  0
 26 27  1  0  0  0  0
 27 28  2  0  0  0  0
 28 29  1  0  0  0  0
 29 30  2  0  0  0  0
M  END
>  <CHROM.1>
-52.25387790,-70.86533538,165.86619301,-76.12380801,72.44815643,-111.40422625
73.68700686,-91.29286471,8.50253569,-84.79679058,-92.19459733,-3.58868358
3.95755065,14.33638714,-1.38918003,-0.15143856,-1.57385565

>  <Name>
1uts_lig

>  <RI>
0

>  <Rbt.Current_Directory>
/home/itssahil/PROJECTS/Mol_Feturizer/New_Systems/rnas/1uts

>  <Rbt.Executable>
rbdock ($Id: //depot/dev/client3/rdock/2013.1/src/exe/rbdock.cxx#4 $)

>  <Rbt.Library>
libRbt.so (2013.1, Build901 2013/11/27)

>  <Rbt.Parameter_File>
/export/apps/rDock/src/rDock_2013.1_src/data/scripts/dock_solv.prm

>  <Rbt.Receptor>
prm/pocket_docking_6.prm

>  <SCORE>
-28.1232

>  <SCORE.INTER>
-25.7045

>  <SCORE.INTER.CONST>
1

>  <SCORE.INTER.POLAR>
-0.0344004

>  <SCORE.INTER.ROT>
10

>  <SCORE.INTER.SOLV>
10.4644

>  <SCORE.INTER.VDW>
-30.7765

>  <SCORE.INTER.norm>
-0.856817

>  <SCORE.INTRA>
-2.41869

>  <SCORE.INTRA.DIHEDRAL>
-3.5477

>  <SCORE.INTRA.DIHEDRAL.0>
18.0451

>  <SCORE.INTRA.POLAR>
-0.404583

>  <SCORE.INTRA.POLAR.0>
-0.196815

>  <SCORE.INTRA.REPUL>
0

>  <SCORE.INTRA.REPUL.0>
0

>  <SCORE.INTRA.SOLV>
0.534086

>  <SCORE.INTRA.SOLV.lig_0>
-14.7906

>  <SCORE.INTRA.VDW>
0.463702

>  <SCORE.INTRA.VDW.0>
-0.411701

>  <SCORE.INTRA.norm>
-0.0806228

>  <SCORE.RESTR>
0

>  <SCORE.RESTR.CAVITY>
0

>  <SCORE.RESTR.norm>
0

>  <SCORE.SYSTEM>
0

>  <SCORE.SYSTEM.CONST>
0

>  <SCORE.SYSTEM.DIHEDRAL>
0

>  <SCORE.SYSTEM.SOLV>
0

>  <SCORE.SYSTEM.norm>
0

>  <SCORE.heavy>
30

>  <SCORE.norm>
-0.93744

>  <RMSD>
7.879

$$$$
1uts_lig
 OpenBabel11021811413D
libRbt.so/2013.1/901 2013/11/27
 30 33  0  0  0  0  0  0  0  0999 V2000
    1.7619   -4.4585   16.5679 N   0  0  0  0  0  0  0  0  0  0  0  0
   -0.6547   -4.7104   16.2020 C   0  0  0  0  0  0  0  0  0  0  0  0
   -2.6513   -0.5180   16.4350 C   0  0  0  0  0  0  0  0  0  0  0  0
   -1.9829   -3.9504   16.1422 C   0  0  0  0  0  0  0  0  0  0  0  0
   -1.9513   -3.0217   15.0485 O   0  0  0  0  0  0  0  0  0  0  0  0
    0.4962   -3.7167   16.3701 C   0  0  0  0  0  0  0  0  0  0  0  0
   -1.7230    0.3338   15.6572 N   0  0  0  0  0  0  0  0  0  0  0  0
   -2.3780    1.6311   15.3428 C   0  0  0  0  0  0  0  0  0  0  0  0
   -1.3339    2.6277   14.8307 C   0  0  0  0  0  0  0  0  0  0  0  0
   -0.5791    3.1828   15.9767 N   0  0  0  0  0  0  0  0  0  0  0  0
   -1.4496    4.1349   16.7247 C   0  0  0  0  0  0  0  0  0  0  0  0
    0.6405    3.8770   15.4754 C   0  0  0  0  0  0  0  0  0  0  0  0
   -0.6677    4.7165   17.9136 C   0  0  0  0  0  0  0  0  0  0  0  0
    1.4224    4.4631   16.6648 C   0  0  0  0  0  0  0  0  0  0  0  0
    0.5516    5.4121   17.4127 N   0  0  0  0  0  0  0  0  0  0  0  0
   -5.4687   -2.5568   13.7666 C   0  0  0  0  0  0  0  0  0  0  0  0
  -11.0700    0.5144   13.5061 N   0  0  0  0  0  0  0  0  0  0  0  0
   -5.8504   -1.3651   14.4280 C   0  0  0  0  0  0  0  0  0  0  0  0
   -4.9327   -0.7098   15.2917 C   0  0  0  0  0  0  0  0  0  0  0  0
   -3.6307   -1.2452   15.4917 C   0  0  0  0  0  0  0  0  0  0  0  0
   -3.2535   -2.4558   14.8364 C   0  0  0  0  0  0  0  0  0  0  0  0
   -4.1752   -3.1058   13.9706 C   0  0  0  0  0  0  0  0  0  0  0  0
  -11.4580   -0.4892   12.5895 C   0  0  0  0  0  0  0  0  0  0  0  0
  -10.3993   -1.3957   12.3550 C   0  0  0  0  0  0  0  0  0  0  0  0
   -8.0307   -1.4851   13.3274 C   0  0  0  0  0  0  0  0  0  0  0  0
   -7.1363   -0.8440   14.2271 C   0  0  0  0  0  0  0  0  0  0  0  0
   -7.5504    0.3222   14.9277 C   0  0  0  0  0  0  0  0  0  0  0  0
   -8.8574    0.8441   14.7301 C   0  0  0  0  0  0  0  0  0  0  0  0
   -9.7596    0.1888   13.8348 C   0  0  0  0  0  0  0  0  0  0  0  0
   -9.3515   -0.9647   13.1404 C   0  0  0  0  0  0  0  0  0  0  0  0
  1  6  1  0  0  0  0
  2  4  1  0  0  0  0
  3  7  1  0  0  0  0
  4  5  1  0  0  0  0
  6  2  1  0  0  0  0
  7  8  1  0  0  0  0
  8  9  1  0  0  0  0
  9 10  1  0  0  0  0
 10 11  1  0  0  0  0
 10 12  1  0  0  0  0
 11 13  1  0  0  0  0
 13 15  1  0  0  0  0
 14 12  1  0  0  0  0
 15 14  1  0  0  0  0
 16 18  2  0  0  0  0
 16 22  1  0  0  0  0
 17 23  1  0  0  0  0
 17 29  1  0  0  0  0
 18 19  1  0  0  0  0
 18 26  1  0  0  0  0
 19 20  2  0  0  0  0
 20  3  1  0  0  0  0
 20 21  1  0  0  0  0
 21  5  1  0  0  0  0
 21 22  2  0  0  0  0
 23 24  2  0  0  0  0
 24 30  1  0  0  0  0
 25 26  2  0  0  0  0
 25 30  1  0  0  0  0
 26 27  1  0  0  0  0
 27 28  2  0  0  0  0
 28 29  1  0  0  0  0
 29 30  2  0  0  0  0
M  END
>  <CHROM.1>
-78.45643304,58.53383667,82.51554769,170.64624535,174.19413020,167.03988786
-78.71646716,-73.01278100,-2.23328034,-97.94710966,91.21689602,-3.82334280
-0.11745974,15.17822748,-0.26575758,0.28564909,-3.04973999

>  <Name>
1uts_lig

>  <RI>
0

>  <Rbt.Current_Directory>
/home/itssahil/PROJECTS/Mol_Feturizer/New_Systems/rnas/1uts

>  <Rbt.Executable>
rbdock ($Id: //depot/dev/client3/rdock/2013.1/src/exe/rbdock.cxx#4 $)

>  <Rbt.Library>
libRbt.so (2013.1, Build901 2013/11/27)

>  <Rbt.Parameter_File>
/export/apps/rDock/src/rDock_2013.1_src/data/scripts/dock_solv.prm

>  <Rbt.Receptor>
prm/pocket_docking_7.prm

>  <SCORE>
-36.5352

>  <SCORE.INTER>
-34.166

>  <SCORE.INTER.CONST>
1

>  <SCORE.INTER.POLAR>
-3.55562

>  <SCORE.INTER.ROT>
10

>  <SCORE.INTER.SOLV>
8.0474

>  <SCORE.INTER.VDW>
-23.8744

>  <SCORE.INTER.norm>
-1.13887

>  <SCORE.INTRA>
-2.37099

>  <SCORE.INTRA.DIHEDRAL>
-8.04885

>  <SCORE.INTRA.DIHEDRAL.0>
18.0451

>  <SCORE.INTRA.POLAR>
0.196815

>  <SCORE.INTRA.POLAR.0>
-0.196815

>  <SCORE.INTRA.REPUL>
0

>  <SCORE.INTRA.REPUL.0>
0

>  <SCORE.INTRA.SOLV>
-0.29666

>  <SCORE.INTRA.SOLV.lig_0>
-14.7906

>  <SCORE.INTRA.VDW>
1.13259

>  <SCORE.INTRA.VDW.0>
-0.411701

>  <SCORE.INTRA.norm>
-0.079033

>  <SCORE.RESTR>
0.00175841

>  <SCORE.RESTR.CAVITY>
0.00175841

>  <SCORE.RESTR.norm>
5.86136e-05

>  <SCORE.SYSTEM>
0

>  <SCORE.SYSTEM.CONST>
0

>  <SCORE.SYSTEM.DIHEDRAL>
0

>  <SCORE.SYSTEM.SOLV>
0

>  <SCORE.SYSTEM.norm>
0

>  <SCORE.heavy>
30

>  <SCORE.norm>
-1.21784

>  <RMSD>
7.898

$$$$
1uts_lig
 OpenBabel11021811413D
libRbt.so/2013.1/901 2013/11/27
 30 33  0  0  0  0  0  0  0  0999 V2000
   -0.8263   -5.0446   16.7670 N   0  0  0  0  0  0  0  0  0  0  0  0
   -0.5466   -4.3688   19.1127 C   0  0  0  0  0  0  0  0  0  0  0  0
    2.9073   -1.4951   18.2269 C   0  0  0  0  0  0  0  0  0  0  0  0
   -0.1116   -2.9006   19.0878 C   0  0  0  0  0  0  0  0  0  0  0  0
    0.9313   -2.6967   20.0524 O   0  0  0  0  0  0  0  0  0  0  0  0
   -1.5509   -4.6238   17.9873 C   0  0  0  0  0  0  0  0  0  0  0  0
    3.4420   -0.5957   17.1793 N   0  0  0  0  0  0  0  0  0  0  0  0
    4.7128    0.0184   17.6473 C   0  0  0  0  0  0  0  0  0  0  0  0
    5.1839    1.0678   16.6362 C   0  0  0  0  0  0  0  0  0  0  0  0
    4.9460    2.4219   17.1847 N   0  0  0  0  0  0  0  0  0  0  0  0
    4.0599    3.1807   16.2557 C   0  0  0  0  0  0  0  0  0  0  0  0
    6.2500    3.1244   17.3496 C   0  0  0  0  0  0  0  0  0  0  0  0
    3.8137    4.5892   16.8203 C   0  0  0  0  0  0  0  0  0  0  0  0
    6.0043    4.5363   17.9114 C   0  0  0  0  0  0  0  0  0  0  0  0
    5.1174    5.2927   16.9843 N   0  0  0  0  0  0  0  0  0  0  0  0
    0.8674    0.8592   21.3109 C   0  0  0  0  0  0  0  0  0  0  0  0
    2.8594    6.9810   20.9006 N   0  0  0  0  0  0  0  0  0  0  0  0
    1.8238    1.4705   20.4653 C   0  0  0  0  0  0  0  0  0  0  0  0
    2.4814    0.7018   19.4683 C   0  0  0  0  0  0  0  0  0  0  0  0
    2.1800   -0.6793   19.3148 C   0  0  0  0  0  0  0  0  0  0  0  0
    1.2273   -1.2976   20.1792 C   0  0  0  0  0  0  0  0  0  0  0  0
    0.5698   -0.5223   21.1734 C   0  0  0  0  0  0  0  0  0  0  0  0
    2.3462    7.3557   19.6381 C   0  0  0  0  0  0  0  0  0  0  0  0
    1.8798    6.2268   18.9271 C   0  0  0  0  0  0  0  0  0  0  0  0
    1.8097    3.7513   19.5836 C   0  0  0  0  0  0  0  0  0  0  0  0
    2.1168    2.8324   20.6237 C   0  0  0  0  0  0  0  0  0  0  0  0
    2.7150    3.2977   21.8269 C   0  0  0  0  0  0  0  0  0  0  0  0
    3.0031    4.6798   21.9899 C   0  0  0  0  0  0  0  0  0  0  0  0
    2.6802    5.6037   20.9472 C   0  0  0  0  0  0  0  0  0  0  0  0
    2.0889    5.1451   19.7559 C   0  0  0  0  0  0  0  0  0  0  0  0
  1  6  1  0  0  0  0
  2  4  1  0  0  0  0
  3  7  1  0  0  0  0
  4  5  1  0  0  0  0
  6  2  1  0  0  0  0
  7  8  1  0  0  0  0
  8  9  1  0  0  0  0
  9 10  1  0  0  0  0
 10 11  1  0  0  0  0
 10 12  1  0  0  0  0
 11 13  1  0  0  0  0
 13 15  1  0  0  0  0
 14 12  1  0  0  0  0
 15 14  1  0  0  0  0
 16 18  2  0  0  0  0
 16 22  1  0  0  0  0
 17 23  1  0  0  0  0
 17 29  1  0  0  0  0
 18 19  1  0  0  0  0
 18 26  1  0  0  0  0
 19 20  2  0  0  0  0
 20  3  1  0  0  0  0
 20 21  1  0  0  0  0
 21  5  1  0  0  0  0
 21 22  2  0  0  0  0
 23 24  2  0  0  0  0
 24 30  1  0  0  0  0
 25 26  2  0  0  0  0
 25 30  1  0  0  0  0
 26 27  1  0  0  0  0
 27 28  2  0  0  0  0
 28 29  1  0  0  0  0
 29 30  2  0  0  0  0
M  END
>  <CHROM.1>
62.76565768,-174.05794040,79.90263325,-172.06146614,90.57506618,-173.56660233
105.99677359,-121.66268057,-115.44511814,-21.41695208,-87.41950749,2.51682602
1.53742802,18.94799462,-2.12635814,0.78500965,0.46338628

>  <Name>
1uts_lig

>  <RI>
0

>  <Rbt.Current_Directory>
/home/itssahil/PROJECTS/Mol_Feturizer/New_Systems/rnas/1uts

>  <Rbt.Executable>
rbdock ($Id: //depot/dev/client3/rdock/2013.1/src/exe/rbdock.cxx#4 $)

>  <Rbt.Library>
libRbt.so (2013.1, Build901 2013/11/27)

>  <Rbt.Parameter_File>
/export/apps/rDock/src/rDock_2013.1_src/data/scripts/dock_solv.prm

>  <Rbt.Receptor>
prm/pocket_docking_7.prm

>  <SCORE>
-8.50039

>  <SCORE.INTER>
-9.16158

>  <SCORE.INTER.CONST>
1

>  <SCORE.INTER.POLAR>
-2.18079

>  <SCORE.INTER.ROT>
10

>  <SCORE.INTER.SOLV>
2.51187

>  <SCORE.INTER.VDW>
-9.94238

>  <SCORE.INTER.norm>
-0.305386

>  <SCORE.INTRA>
0.661186

>  <SCORE.INTRA.DIHEDRAL>
4.07641

>  <SCORE.INTRA.DIHEDRAL.0>
18.0451

>  <SCORE.INTRA.POLAR>
0.196815

>  <SCORE.INTRA.POLAR.0>
-0.196815

>  <SCORE.INTRA.REPUL>
0

>  <SCORE.INTRA.REPUL.0>
0

>  <SCORE.INTRA.SOLV>
-0.256455

>  <SCORE.INTRA.SOLV.lig_0>
-14.7906

>  <SCORE.INTRA.VDW>
-1.91796

>  <SCORE.INTRA.VDW.0>
-0.411701

>  <SCORE.INTRA.norm>
0.0220395

>  <SCORE.RESTR>
0

>  <SCORE.RESTR.CAVITY>
0

>  <SCORE.RESTR.norm>
0

>  <SCORE.SYSTEM>
0

>  <SCORE.SYSTEM.CONST>
0

>  <SCORE.SYSTEM.DIHEDRAL>
0

>  <SCORE.SYSTEM.SOLV>
0

>  <SCORE.SYSTEM.norm>
0

>  <SCORE.heavy>
30

>  <SCORE.norm>
-0.283346

>  <RMSD>
7.993

$$$$
1uts_lig
 OpenBabel11021811413D
libRbt.so/2013.1/901 2013/11/27
 30 33  0  0  0  0  0  0  0  0999 V2000
    3.6913    3.2370   16.1630 N   0  0  0  0  0  0  0  0  0  0  0  0
    1.4614    4.1389   16.6643 C   0  0  0  0  0  0  0  0  0  0  0  0
   -1.6196    4.1009   14.2619 C   0  0  0  0  0  0  0  0  0  0  0  0
   -0.0262    3.7885   16.7618 C   0  0  0  0  0  0  0  0  0  0  0  0
   -0.7877    4.9912   16.9445 O   0  0  0  0  0  0  0  0  0  0  0  0
    2.2506    2.9030   16.2286 C   0  0  0  0  0  0  0  0  0  0  0  0
   -1.9533    4.9823   13.1200 N   0  0  0  0  0  0  0  0  0  0  0  0
   -2.3833    4.1578   11.9598 C   0  0  0  0  0  0  0  0  0  0  0  0
   -2.8120    5.0700   10.8067 C   0  0  0  0  0  0  0  0  0  0  0  0
   -2.7981    4.3032    9.5407 N   0  0  0  0  0  0  0  0  0  0  0  0
   -1.3944    4.1867    9.0509 C   0  0  0  0  0  0  0  0  0  0  0  0
   -3.6449    5.0002    8.5316 C   0  0  0  0  0  0  0  0  0  0  0  0
   -1.3765    3.3941    7.7339 C   0  0  0  0  0  0  0  0  0  0  0  0
   -3.6247    4.2093    7.2111 C   0  0  0  0  0  0  0  0  0  0  0  0
   -2.2222    4.0913    6.7239 N   0  0  0  0  0  0  0  0  0  0  0  0
   -4.5062    4.6938   17.5070 C   0  0  0  0  0  0  0  0  0  0  0  0
  -10.3790    3.3432   15.1048 N   0  0  0  0  0  0  0  0  0  0  0  0
   -4.9489    4.2825   16.2271 C   0  0  0  0  0  0  0  0  0  0  0  0
   -4.0083    4.0926   15.1799 C   0  0  0  0  0  0  0  0  0  0  0  0
   -2.6229    4.3115   15.4138 C   0  0  0  0  0  0  0  0  0  0  0  0
   -2.1804    4.7420   16.7007 C   0  0  0  0  0  0  0  0  0  0  0  0
   -3.1262    4.9274   17.7460 C   0  0  0  0  0  0  0  0  0  0  0  0
  -10.2324    3.1038   13.7195 C   0  0  0  0  0  0  0  0  0  0  0  0
   -8.8819    3.2360   13.3241 C   0  0  0  0  0  0  0  0  0  0  0  0
   -6.7867    3.7831   14.6932 C   0  0  0  0  0  0  0  0  0  0  0  0
   -6.3166    4.0701   16.0036 C   0  0  0  0  0  0  0  0  0  0  0  0
   -7.2346    4.1344   17.0878 C   0  0  0  0  0  0  0  0  0  0  0  0
   -8.6195    3.9098   16.8614 C   0  0  0  0  0  0  0  0  0  0  0  0
   -9.0874    3.6075   15.5444 C   0  0  0  0  0  0  0  0  0  0  0  0
   -8.1808    3.5441   14.4704 C   0  0  0  0  0  0  0  0  0  0  0  0
  1  6  1  0  0  0  0
  2  4  1  0  0  0  0
  3  7  1  0  0  0  0
  4  5  1  0  0  0  0
  6  2  1  0  0  0  0
  7  8  1  0  0  0  0
  8  9  1  0  0  0  0
  9 10  1  0  0  0  0
 10 11  1  0  0  0  0
 10 12  1  0  0  0  0
 11 13  1  0  0  0  0
 13 15  1  0  0  0  0
 14 12  1  0  0  0  0
 15 14  1  0  0  0  0
 16 18  2  0  0  0  0
 16 22  1  0  0  0  0
 17 23  1  0  0  0  0
 17 29  1  0  0  0  0
 18 19  1  0  0  0  0
 18 26  1  0  0  0  0
 19 20  2  0  0  0  0
 20  3  1  0  0  0  0
 20 21  1  0  0  0  0
 21  5  1  0  0  0  0
 21 22  2  0  0  0  0
 23 24  2  0  0  0  0
 24 30  1  0  0  0  0
 25 26  2  0  0  0  0
 25 30  1  0  0  0  0
 26 27  1  0  0  0  0
 27 28  2  0  0  0  0
 28 29  1  0  0  0  0
 29 30  2  0  0  0  0
M  END
>  <CHROM.1>
176.29929539,-170.20858463,-113.58685425,165.37656330,-178.81275011,176.49740699
161.06507040,-78.81549354,173.93182478,58.62516050,-62.04362536,-3.63109650
4.08283217,13.80354579,-0.37230634,0.03003694,1.58144991

>  <Name>
1uts_lig

>  <RI>
0

>  <Rbt.Current_Directory>
/home/itssahil/PROJECTS/Mol_Feturizer/New_Systems/rnas/1uts

>  <Rbt.Executable>
rbdock ($Id: //depot/dev/client3/rdock/2013.1/src/exe/rbdock.cxx#4 $)

>  <Rbt.Library>
libRbt.so (2013.1, Build901 2013/11/27)

>  <Rbt.Parameter_File>
/export/apps/rDock/src/rDock_2013.1_src/data/scripts/dock_solv.prm

>  <Rbt.Receptor>
prm/pocket_docking_8.prm

>  <SCORE>
-46.5054

>  <SCORE.INTER>
-45.9455

>  <SCORE.INTER.CONST>
1

>  <SCORE.INTER.POLAR>
-2.67503

>  <SCORE.INTER.ROT>
10

>  <SCORE.INTER.SOLV>
11.6082

>  <SCORE.INTER.VDW>
-35.8496

>  <SCORE.INTER.norm>
-1.53152

>  <SCORE.INTRA>
-0.559959

>  <SCORE.INTRA.DIHEDRAL>
-6.50467

>  <SCORE.INTRA.DIHEDRAL.0>
18.0451

>  <SCORE.INTRA.POLAR>
0.196815

>  <SCORE.INTRA.POLAR.0>
-0.196815

>  <SCORE.INTRA.REPUL>
0

>  <SCORE.INTRA.REPUL.0>
0

>  <SCORE.INTRA.SOLV>
-0.6439

>  <SCORE.INTRA.SOLV.lig_0>
-14.7906

>  <SCORE.INTRA.VDW>
2.34516

>  <SCORE.INTRA.VDW.0>
-0.411701

>  <SCORE.INTRA.norm>
-0.0186653

>  <SCORE.RESTR>
0

>  <SCORE.RESTR.CAVITY>
0

>  <SCORE.RESTR.norm>
0

>  <SCORE.SYSTEM>
0

>  <SCORE.SYSTEM.CONST>
0

>  <SCORE.SYSTEM.DIHEDRAL>
0

>  <SCORE.SYSTEM.SOLV>
0

>  <SCORE.SYSTEM.norm>
0

>  <SCORE.heavy>
30

>  <SCORE.norm>
-1.55018

>  <RMSD>
8.016

$$$$
1uts_lig
 OpenBabel11021811413D
libRbt.so/2013.1/901 2013/11/27
 30 33  0  0  0  0  0  0  0  0999 V2000
    2.5968   -1.3446   17.4054 N   0  0  0  0  0  0  0  0  0  0  0  0
    1.1210   -0.2781   15.7556 C   0  0  0  0  0  0  0  0  0  0  0  0
   -1.1794    4.1136   15.9592 C   0  0  0  0  0  0  0  0  0  0  0  0
   -0.3149    0.1827   15.4890 C   0  0  0  0  0  0  0  0  0  0  0  0
   -0.6483    1.2478   16.3913 O   0  0  0  0  0  0  0  0  0  0  0  0
    1.2076   -0.9019   17.1497 C   0  0  0  0  0  0  0  0  0  0  0  0
   -0.7593    4.4061   14.5700 N   0  0  0  0  0  0  0  0  0  0  0  0
   -1.9445    4.7910   13.7588 C   0  0  0  0  0  0  0  0  0  0  0  0
   -1.5838    4.7657   12.2706 C   0  0  0  0  0  0  0  0  0  0  0  0
   -2.4764    5.6868   11.5317 N   0  0  0  0  0  0  0  0  0  0  0  0
   -3.3390    4.8988   10.6050 C   0  0  0  0  0  0  0  0  0  0  0  0
   -1.6528    6.6668   10.7686 C   0  0  0  0  0  0  0  0  0  0  0  0
   -4.2648    5.8526    9.8329 C   0  0  0  0  0  0  0  0  0  0  0  0
   -2.5788    7.6202    9.9921 C   0  0  0  0  0  0  0  0  0  0  0  0
   -3.4417    6.8322    9.0685 N   0  0  0  0  0  0  0  0  0  0  0  0
   -4.3975    1.1374   15.9875 C   0  0  0  0  0  0  0  0  0  0  0  0
  -10.0541    3.9552   14.8830 N   0  0  0  0  0  0  0  0  0  0  0  0
   -4.6968    2.5072   15.7944 C   0  0  0  0  0  0  0  0  0  0  0  0
   -3.6493    3.4664   15.7868 C   0  0  0  0  0  0  0  0  0  0  0  0
   -2.3006    3.0548   15.9694 C   0  0  0  0  0  0  0  0  0  0  0  0
   -2.0026    1.6750   16.1803 C   0  0  0  0  0  0  0  0  0  0  0  0
   -3.0550    0.7189   16.1838 C   0  0  0  0  0  0  0  0  0  0  0  0
  -10.1750    3.3785   13.5983 C   0  0  0  0  0  0  0  0  0  0  0  0
   -8.9581    2.7834   13.1950 C   0  0  0  0  0  0  0  0  0  0  0  0
   -6.7110    2.5884   14.4102 C   0  0  0  0  0  0  0  0  0  0  0  0
   -6.0291    2.9056   15.6164 C   0  0  0  0  0  0  0  0  0  0  0  0
   -6.7026    3.6213   16.6442 C   0  0  0  0  0  0  0  0  0  0  0  0
   -8.0560    4.0166   16.4663 C   0  0  0  0  0  0  0  0  0  0  0  0
   -8.7436    3.6838   15.2573 C   0  0  0  0  0  0  0  0  0  0  0  0
   -8.0787    2.9763   14.2391 C   0  0  0  0  0  0  0  0  0  0  0  0
  1  6  1  0  0  0  0
  2  4  1  0  0  0  0
  3  7  1  0  0  0  0
  4  5  1  0  0  0  0
  6  2  1  0  0  0  0
  7  8  1  0  0  0  0
  8  9  1  0  0  0  0
  9 10  1  0  0  0  0
 10 11  1  0  0  0  0
 10 12  1  0  0  0  0
 11 13  1  0  0  0  0
 13 15  1  0  0  0  0
 14 12  1  0  0  0  0
 15 14  1  0  0  0  0
 16 18  2  0  0  0  0
 16 22  1  0  0  0  0
 17 23  1  0  0  0  0
 17 29  1  0  0  0  0
 18 19  1  0  0  0  0
 18 26  1  0  0  0  0
 19 20  2  0  0  0  0
 20  3  1  0  0  0  0
 20 21  1  0  0  0  0
 21  5  1  0  0  0  0
 21 22  2  0  0  0  0
 23 24  2  0  0  0  0
 24 30  1  0  0  0  0
 25 26  2  0  0  0  0
 25 30  1  0  0  0  0
 26 27  1  0  0  0  0
 27 28  2  0  0  0  0
 28 29  1  0  0  0  0
 29 30  2  0  0  0  0
M  END
>  <CHROM.1>
-55.47275184,65.54131787,54.27060751,-178.64264577,-179.91742451,-166.45563810
-154.57891933,-114.31296137,-70.97427978,-84.43977542,-127.93464083,-3.59658809
3.24618977,14.30798586,0.59748166,-0.11192255,2.29578069

>  <Name>
1uts_lig

>  <RI>
0

>  <Rbt.Current_Directory>
/home/itssahil/PROJECTS/Mol_Feturizer/New_Systems/rnas/1uts

>  <Rbt.Executable>
rbdock ($Id: //depot/dev/client3/rdock/2013.1/src/exe/rbdock.cxx#4 $)

>  <Rbt.Library>
libRbt.so (2013.1, Build901 2013/11/27)

>  <Rbt.Parameter_File>
/export/apps/rDock/src/rDock_2013.1_src/data/scripts/dock_solv.prm

>  <Rbt.Receptor>
prm/pocket_docking_5.prm

>  <SCORE>
-40.3118

>  <SCORE.INTER>
-40.4347

>  <SCORE.INTER.CONST>
1

>  <SCORE.INTER.POLAR>
-3.19244

>  <SCORE.INTER.ROT>
10

>  <SCORE.INTER.SOLV>
11.0484

>  <SCORE.INTER.VDW>
-30.2645

>  <SCORE.INTER.norm>
-1.34782

>  <SCORE.INTRA>
0.122932

>  <SCORE.INTRA.DIHEDRAL>
-3.7232

>  <SCORE.INTRA.DIHEDRAL.0>
18.0451

>  <SCORE.INTRA.POLAR>
0.196815

>  <SCORE.INTRA.POLAR.0>
-0.196815

>  <SCORE.INTRA.REPUL>
0

>  <SCORE.INTRA.REPUL.0>
0

>  <SCORE.INTRA.SOLV>
-0.556076

>  <SCORE.INTRA.SOLV.lig_0>
-14.7906

>  <SCORE.INTRA.VDW>
1.5934

>  <SCORE.INTRA.VDW.0>
-0.411701

>  <SCORE.INTRA.norm>
0.00409773

>  <SCORE.RESTR>
0

>  <SCORE.RESTR.CAVITY>
0

>  <SCORE.RESTR.norm>
0

>  <SCORE.SYSTEM>
0

>  <SCORE.SYSTEM.CONST>
0

>  <SCORE.SYSTEM.DIHEDRAL>
0

>  <SCORE.SYSTEM.SOLV>
0

>  <SCORE.SYSTEM.norm>
0

>  <SCORE.heavy>
30

>  <SCORE.norm>
-1.34373

>  <RMSD>
8.023

$$$$
1uts_lig
 OpenBabel11021811413D
libRbt.so/2013.1/901 2013/11/27
 30 33  0  0  0  0  0  0  0  0999 V2000
   -3.4840   -2.6392   13.5894 N   0  0  0  0  0  0  0  0  0  0  0  0
   -2.4348   -1.9054   15.6865 C   0  0  0  0  0  0  0  0  0  0  0  0
    0.8387   -2.1930   16.3681 C   0  0  0  0  0  0  0  0  0  0  0  0
   -2.7114   -1.3015   17.0664 C   0  0  0  0  0  0  0  0  0  0  0  0
   -1.5749   -1.5156   17.9163 O   0  0  0  0  0  0  0  0  0  0  0  0
   -3.7384   -1.9782   14.8893 C   0  0  0  0  0  0  0  0  0  0  0  0
    1.8357   -2.9244   17.1824 N   0  0  0  0  0  0  0  0  0  0  0  0
    1.2629   -4.2217   17.6293 C   0  0  0  0  0  0  0  0  0  0  0  0
    0.2177   -3.9774   18.7218 C   0  0  0  0  0  0  0  0  0  0  0  0
   -0.5809   -5.2072   18.9233 N   0  0  0  0  0  0  0  0  0  0  0  0
   -1.6786   -5.2523   17.9149 C   0  0  0  0  0  0  0  0  0  0  0  0
   -1.1424   -5.2112   20.3037 C   0  0  0  0  0  0  0  0  0  0  0  0
   -2.5128   -6.5266   18.1236 C   0  0  0  0  0  0  0  0  0  0  0  0
   -1.9810   -6.4850   20.5127 C   0  0  0  0  0  0  0  0  0  0  0  0
   -3.0756   -6.5304   19.5037 N   0  0  0  0  0  0  0  0  0  0  0  0
    0.1911    1.8164   18.0173 C   0  0  0  0  0  0  0  0  0  0  0  0
    5.3772    5.3831   16.4455 N   0  0  0  0  0  0  0  0  0  0  0  0
    1.3729    1.5267   17.2943 C   0  0  0  0  0  0  0  0  0  0  0  0
    1.5766    0.2253   16.7630 C   0  0  0  0  0  0  0  0  0  0  0  0
    0.5958   -0.7867   16.9523 C   0  0  0  0  0  0  0  0  0  0  0  0
   -0.5877   -0.4970   17.6956 C   0  0  0  0  0  0  0  0  0  0  0  0
   -0.7876    0.8084   18.2225 C   0  0  0  0  0  0  0  0  0  0  0  0
    6.3837    4.4955   16.0017 C   0  0  0  0  0  0  0  0  0  0  0  0
    5.9212    3.1600   16.0149 C   0  0  0  0  0  0  0  0  0  0  0  0
    3.6399    2.1889   16.6605 C   0  0  0  0  0  0  0  0  0  0  0  0
    2.3361    2.5292   17.1130 C   0  0  0  0  0  0  0  0  0  0  0  0
    2.0087    3.8881   17.3746 C   0  0  0  0  0  0  0  0  0  0  0  0
    2.9831    4.9043   17.1815 C   0  0  0  0  0  0  0  0  0  0  0  0
    4.2897    4.5604   16.7129 C   0  0  0  0  0  0  0  0  0  0  0  0
    4.6156    3.2164   16.4541 C   0  0  0  0  0  0  0  0  0  0  0  0
  1  6  1  0  0  0  0
  2  4  1  0  0  0  0
  3  7  1  0  0  0  0
  4  5  1  0  0  0  0
  6  2  1  0  0  0  0
  7  8  1  0  0  0  0
  8  9  1  0  0  0  0
  9 10  1  0  0  0  0
 10 11  1  0  0  0  0
 10 12  1  0  0  0  0
 11 13  1  0  0  0  0
 13 15  1  0  0  0  0
 14 12  1  0  0  0  0
 15 14  1  0  0  0  0
 16 18  2  0  0  0  0
 16 22  1  0  0  0  0
 17 23  1  0  0  0  0
 17 29  1  0  0  0  0
 18 19  1  0  0  0  0
 18 26  1  0  0  0  0
 19 20  2  0  0  0  0
 20  3  1  0  0  0  0
 20 21  1  0  0  0  0
 21  5  1  0  0  0  0
 21 22  2  0  0  0  0
 23 24  2  0  0  0  0
 24 30  1  0  0  0  0
 25 26  2  0  0  0  0
 25 30  1  0  0  0  0
 26 27  1  0  0  0  0
 27 28  2  0  0  0  0
 28 29  1  0  0  0  0
 29 30  2  0  0  0  0
M  END
>  <CHROM.1>
64.39965681,166.73915949,124.81141183,83.62424921,-176.50163097,-72.93751255
166.02499527,-83.89301227,165.97117645,75.08341826,-104.50275592,0.51174447
-0.87306902,17.30783570,2.24937182,0.43448628,2.64035519

>  <Name>
1uts_lig

>  <RI>
0

>  <Rbt.Current_Directory>
/home/itssahil/PROJECTS/Mol_Feturizer/New_Systems/rnas/1uts

>  <Rbt.Executable>
rbdock ($Id: //depot/dev/client3/rdock/2013.1/src/exe/rbdock.cxx#4 $)

>  <Rbt.Library>
libRbt.so (2013.1, Build901 2013/11/27)

>  <Rbt.Parameter_File>
/export/apps/rDock/src/rDock_2013.1_src/data/scripts/dock_solv.prm

>  <Rbt.Receptor>
prm/pocket_docking_8.prm

>  <SCORE>
-32.8995

>  <SCORE.INTER>
-32.3195

>  <SCORE.INTER.CONST>
1

>  <SCORE.INTER.POLAR>
-4.52336

>  <SCORE.INTER.ROT>
10

>  <SCORE.INTER.SOLV>
5.66204

>  <SCORE.INTER.VDW>
-18.6225

>  <SCORE.INTER.norm>
-1.07732

>  <SCORE.INTRA>
-0.583321

>  <SCORE.INTRA.DIHEDRAL>
-3.4485

>  <SCORE.INTRA.DIHEDRAL.0>
18.0451

>  <SCORE.INTRA.POLAR>
0.196815

>  <SCORE.INTRA.POLAR.0>
-0.196815

>  <SCORE.INTRA.REPUL>
0

>  <SCORE.INTRA.REPUL.0>
0

>  <SCORE.INTRA.SOLV>
-0.403866

>  <SCORE.INTRA.SOLV.lig_0>
-14.7906

>  <SCORE.INTRA.VDW>
0.673691

>  <SCORE.INTRA.VDW.0>
-0.411701

>  <SCORE.INTRA.norm>
-0.019444

>  <SCORE.RESTR>
0.00333354

>  <SCORE.RESTR.CAVITY>
0.00333354

>  <SCORE.RESTR.norm>
0.000111118

>  <SCORE.SYSTEM>
0

>  <SCORE.SYSTEM.CONST>
0

>  <SCORE.SYSTEM.DIHEDRAL>
0

>  <SCORE.SYSTEM.SOLV>
0

>  <SCORE.SYSTEM.norm>
0

>  <SCORE.heavy>
30

>  <SCORE.norm>
-1.09665

>  <RMSD>
8.035

$$$$
1uts_lig
 OpenBabel11021811413D
libRbt.so/2013.1/901 2013/11/27
 30 33  0  0  0  0  0  0  0  0999 V2000
   -2.7216    4.5294    6.3937 N   0  0  0  0  0  0  0  0  0  0  0  0
   -3.7635    5.4663    8.4121 C   0  0  0  0  0  0  0  0  0  0  0  0
   -2.1575    3.8525   12.6106 C   0  0  0  0  0  0  0  0  0  0  0  0
   -4.6061    5.1241    9.6442 C   0  0  0  0  0  0  0  0  0  0  0  0
   -4.0162    4.0098   10.3299 O   0  0  0  0  0  0  0  0  0  0  0  0
   -3.6254    4.2267    7.5263 C   0  0  0  0  0  0  0  0  0  0  0  0
   -1.5512    4.7969   13.5764 N   0  0  0  0  0  0  0  0  0  0  0  0
   -0.8335    4.0386   14.6351 C   0  0  0  0  0  0  0  0  0  0  0  0
   -1.8273    3.5754   15.7043 C   0  0  0  0  0  0  0  0  0  0  0  0
   -1.3223    2.3398   16.3439 N   0  0  0  0  0  0  0  0  0  0  0  0
   -1.4629    1.2000   15.3926 C   0  0  0  0  0  0  0  0  0  0  0  0
   -2.0968    2.0761   17.5895 C   0  0  0  0  0  0  0  0  0  0  0  0
   -0.9429   -0.0861   16.0549 C   0  0  0  0  0  0  0  0  0  0  0  0
   -1.5794    0.7864   18.2517 C   0  0  0  0  0  0  0  0  0  0  0  0
   -1.7180   -0.3510   17.3001 N   0  0  0  0  0  0  0  0  0  0  0  0
   -6.5059    3.7368   13.1510 C   0  0  0  0  0  0  0  0  0  0  0  0
   -7.6199    3.0544   19.5053 N   0  0  0  0  0  0  0  0  0  0  0  0
   -5.6468    3.6403   14.2717 C   0  0  0  0  0  0  0  0  0  0  0  0
   -4.2386    3.6780   14.0894 C   0  0  0  0  0  0  0  0  0  0  0  0
   -3.6892    3.8155   12.7852 C   0  0  0  0  0  0  0  0  0  0  0  0
   -4.5571    3.8962   11.6550 C   0  0  0  0  0  0  0  0  0  0  0  0
   -5.9659    3.8610   11.8438 C   0  0  0  0  0  0  0  0  0  0  0  0
   -6.4333    2.5496   20.0841 C   0  0  0  0  0  0  0  0  0  0  0  0
   -5.4114    2.4264   19.1155 C   0  0  0  0  0  0  0  0  0  0  0  0
   -5.4029    2.9888   16.6159 C   0  0  0  0  0  0  0  0  0  0  0  0
   -6.1958    3.5035   15.5544 C   0  0  0  0  0  0  0  0  0  0  0  0
   -7.5439    3.8856   15.7974 C   0  0  0  0  0  0  0  0  0  0  0  0
   -8.0964    3.7551   17.1001 C   0  0  0  0  0  0  0  0  0  0  0  0
   -7.2919    3.2500   18.1691 C   0  0  0  0  0  0  0  0  0  0  0  0
   -5.9582    2.8709   17.9305 C   0  0  0  0  0  0  0  0  0  0  0  0
  1  6  1  0  0  0  0
  2  4  1  0  0  0  0
  3  7  1  0  0  0  0
  4  5  1  0  0  0  0
  6  2  1  0  0  0  0
  7  8  1  0  0  0  0
  8  9  1  0  0  0  0
  9 10  1  0  0  0  0
 10 11  1  0  0  0  0
 10 12  1  0  0  0  0
 11 13  1  0  0  0  0
 13 15  1  0  0  0  0
 14 12  1  0  0  0  0
 15 14  1  0  0  0  0
 16 18  2  0  0  0  0
 16 22  1  0  0  0  0
 17 23  1  0  0  0  0
 17 29  1  0  0  0  0
 18 19  1  0  0  0  0
 18 26  1  0  0  0  0
 19 20  2  0  0  0  0
 20  3  1  0  0  0  0
 20 21  1  0  0  0  0
 21  5  1  0  0  0  0
 21 22  2  0  0  0  0
 23 24  2  0  0  0  0
 24 30  1  0  0  0  0
 25 26  2  0  0  0  0
 25 30  1  0  0  0  0
 26 27  1  0  0  0  0
 27 28  2  0  0  0  0
 28 29  1  0  0  0  0
 29 30  2  0  0  0  0
M  END
>  <CHROM.1>
-58.79904373,55.74145409,107.76353487,164.45929844,-175.47232223,-82.40567439
152.26874730,-72.81876931,160.00686257,-47.78743584,-127.85237856,-4.04406186
3.20854659,14.48402967,-1.42154669,-0.31151942,1.86417996

>  <Name>
1uts_lig

>  <RI>
0

>  <Rbt.Current_Directory>
/home/itssahil/PROJECTS/Mol_Feturizer/New_Systems/rnas/1uts

>  <Rbt.Executable>
rbdock ($Id: //depot/dev/client3/rdock/2013.1/src/exe/rbdock.cxx#4 $)

>  <Rbt.Library>
libRbt.so (2013.1, Build901 2013/11/27)

>  <Rbt.Parameter_File>
/export/apps/rDock/src/rDock_2013.1_src/data/scripts/dock_solv.prm

>  <Rbt.Receptor>
prm/pocket_docking_7.prm

>  <SCORE>
-24.416

>  <SCORE.INTER>
-24.9883

>  <SCORE.INTER.CONST>
1

>  <SCORE.INTER.POLAR>
-2.01455

>  <SCORE.INTER.ROT>
10

>  <SCORE.INTER.SOLV>
9.69505

>  <SCORE.INTER.VDW>
-23.442

>  <SCORE.INTER.norm>
-0.832942

>  <SCORE.INTRA>
0.401164

>  <SCORE.INTRA.DIHEDRAL>
-5.29037

>  <SCORE.INTRA.DIHEDRAL.0>
18.0451

>  <SCORE.INTRA.POLAR>
0.196815

>  <SCORE.INTRA.POLAR.0>
-0.196815

>  <SCORE.INTRA.REPUL>
0

>  <SCORE.INTRA.REPUL.0>
0

>  <SCORE.INTRA.SOLV>
-0.405917

>  <SCORE.INTRA.SOLV.lig_0>
-14.7906

>  <SCORE.INTRA.VDW>
2.58014

>  <SCORE.INTRA.VDW.0>
-0.411701

>  <SCORE.INTRA.norm>
0.0133721

>  <SCORE.RESTR>
0.171128

>  <SCORE.RESTR.CAVITY>
0.171128

>  <SCORE.RESTR.norm>
0.00570428

>  <SCORE.SYSTEM>
0

>  <SCORE.SYSTEM.CONST>
0

>  <SCORE.SYSTEM.DIHEDRAL>
0

>  <SCORE.SYSTEM.SOLV>
0

>  <SCORE.SYSTEM.norm>
0

>  <SCORE.heavy>
30

>  <SCORE.norm>
-0.813866

>  <RMSD>
8.055

$$$$
1uts_lig
 OpenBabel11021811413D
libRbt.so/2013.1/901 2013/11/27
 30 33  0  0  0  0  0  0  0  0999 V2000
    0.5510    5.0197   16.8462 N   0  0  0  0  0  0  0  0  0  0  0  0
   -0.3013    5.1910   19.1443 C   0  0  0  0  0  0  0  0  0  0  0  0
   -2.6337    3.3758   14.8425 C   0  0  0  0  0  0  0  0  0  0  0  0
   -1.7342    5.2984   18.6145 C   0  0  0  0  0  0  0  0  0  0  0  0
   -1.8996    4.4040   17.5043 O   0  0  0  0  0  0  0  0  0  0  0  0
    0.6696    5.7728   18.1152 C   0  0  0  0  0  0  0  0  0  0  0  0
   -2.8907    4.0789   13.5651 N   0  0  0  0  0  0  0  0  0  0  0  0
   -1.8663    3.6852   12.5618 C   0  0  0  0  0  0  0  0  0  0  0  0
   -2.3616    4.0287   11.1539 C   0  0  0  0  0  0  0  0  0  0  0  0
   -1.5206    5.1056   10.5850 N   0  0  0  0  0  0  0  0  0  0  0  0
   -1.9350    6.4141   11.1682 C   0  0  0  0  0  0  0  0  0  0  0  0
   -1.6769    5.1240    9.1030 C   0  0  0  0  0  0  0  0  0  0  0  0
   -1.0660    7.5357   10.5766 C   0  0  0  0  0  0  0  0  0  0  0  0
   -0.8101    6.2492    8.5098 C   0  0  0  0  0  0  0  0  0  0  0  0
   -1.2229    7.5553    9.0946 N   0  0  0  0  0  0  0  0  0  0  0  0
   -5.6585    4.5061   17.8069 C   0  0  0  0  0  0  0  0  0  0  0  0
  -11.4615    3.5249   15.0776 N   0  0  0  0  0  0  0  0  0  0  0  0
   -6.0530    4.0332   16.5325 C   0  0  0  0  0  0  0  0  0  0  0  0
   -5.0676    3.6691   15.5764 C   0  0  0  0  0  0  0  0  0  0  0  0
   -3.6862    3.7751   15.8964 C   0  0  0  0  0  0  0  0  0  0  0  0
   -3.2906    4.2677   17.1762 C   0  0  0  0  0  0  0  0  0  0  0  0
   -4.2814    4.6278   18.1304 C   0  0  0  0  0  0  0  0  0  0  0  0
  -11.2471    3.1918   13.7208 C   0  0  0  0  0  0  0  0  0  0  0  0
   -9.8671    3.1775   13.4161 C   0  0  0  0  0  0  0  0  0  0  0  0
   -7.8244    3.6125   14.9002 C   0  0  0  0  0  0  0  0  0  0  0  0
   -7.4168    3.9327   16.2237 C   0  0  0  0  0  0  0  0  0  0  0  0
   -8.3942    4.1440   17.2348 C   0  0  0  0  0  0  0  0  0  0  0  0
   -9.7761    4.0328   16.9226 C   0  0  0  0  0  0  0  0  0  0  0  0
  -10.1826    3.6968   15.5934 C   0  0  0  0  0  0  0  0  0  0  0  0
   -9.2171    3.4880   14.5916 C   0  0  0  0  0  0  0  0  0  0  0  0
  1  6  1  0  0  0  0
  2  4  1  0  0  0  0
  3  7  1  0  0  0  0
  4  5  1  0  0  0  0
  6  2  1  0  0  0  0
  7  8  1  0  0  0  0
  8  9  1  0  0  0  0
  9 10  1  0  0  0  0
 10 11  1  0  0  0  0
 10 12  1  0  0  0  0
 11 13  1  0  0  0  0
 13 15  1  0  0  0  0
 14 12  1  0  0  0  0
 15 14  1  0  0  0  0
 16 18  2  0  0  0  0
 16 22  1  0  0  0  0
 17 23  1  0  0  0  0
 17 29  1  0  0  0  0
 18 19  1  0  0  0  0
 18 26  1  0  0  0  0
 19 20  2  0  0  0  0
 20  3  1  0  0  0  0
 20 21  1  0  0  0  0
 21  5  1  0  0  0  0
 21 22  2  0  0  0  0
 23 24  2  0  0  0  0
 24 30  1  0  0  0  0
 25 26  2  0  0  0  0
 25 30  1  0  0  0  0
 26 27  1  0  0  0  0
 27 28  2  0  0  0  0
 28 29  1  0  0  0  0
 29 30  2  0  0  0  0
M  END
>  <CHROM.1>
150.23177934,68.82438106,179.88887896,167.50949472,-59.80943575,161.82243953
112.91825591,-78.15210530,172.52846160,52.45667834,161.02259733,-4.28279180
4.60058174,14.59418481,-0.42651205,0.19390923,1.69126883

>  <Name>
1uts_lig

>  <RI>
0

>  <Rbt.Current_Directory>
/home/itssahil/PROJECTS/Mol_Feturizer/New_Systems/rnas/1uts

>  <Rbt.Executable>
rbdock ($Id: //depot/dev/client3/rdock/2013.1/src/exe/rbdock.cxx#4 $)

>  <Rbt.Library>
libRbt.so (2013.1, Build901 2013/11/27)

>  <Rbt.Parameter_File>
/export/apps/rDock/src/rDock_2013.1_src/data/scripts/dock_solv.prm

>  <Rbt.Receptor>
prm/pocket_docking_8.prm

>  <SCORE>
-46.6119

>  <SCORE.INTER>
-46.5507

>  <SCORE.INTER.CONST>
1

>  <SCORE.INTER.POLAR>
-2.59437

>  <SCORE.INTER.ROT>
10

>  <SCORE.INTER.SOLV>
12.1884

>  <SCORE.INTER.VDW>
-36.7153

>  <SCORE.INTER.norm>
-1.55169

>  <SCORE.INTRA>
-0.0611915

>  <SCORE.INTRA.DIHEDRAL>
-7.05643

>  <SCORE.INTRA.DIHEDRAL.0>
18.0451

>  <SCORE.INTRA.POLAR>
-0.726795

>  <SCORE.INTRA.POLAR.0>
-0.196815

>  <SCORE.INTRA.REPUL>
0

>  <SCORE.INTRA.REPUL.0>
0

>  <SCORE.INTRA.SOLV>
0.112276

>  <SCORE.INTRA.SOLV.lig_0>
-14.7906

>  <SCORE.INTRA.VDW>
5.88199

>  <SCORE.INTRA.VDW.0>
-0.411701

>  <SCORE.INTRA.norm>
-0.00203972

>  <SCORE.RESTR>
0

>  <SCORE.RESTR.CAVITY>
0

>  <SCORE.RESTR.norm>
0

>  <SCORE.SYSTEM>
0

>  <SCORE.SYSTEM.CONST>
0

>  <SCORE.SYSTEM.DIHEDRAL>
0

>  <SCORE.SYSTEM.SOLV>
0

>  <SCORE.SYSTEM.norm>
0

>  <SCORE.heavy>
30

>  <SCORE.norm>
-1.55373

>  <RMSD>
8.088

$$$$
1uts_lig
 OpenBabel11021811413D
libRbt.so/2013.1/901 2013/11/27
 30 33  0  0  0  0  0  0  0  0999 V2000
   -1.3487    3.1788   11.7361 N   0  0  0  0  0  0  0  0  0  0  0  0
   -1.6537    3.4426   14.1599 C   0  0  0  0  0  0  0  0  0  0  0  0
    2.2913    2.7770   16.6406 C   0  0  0  0  0  0  0  0  0  0  0  0
   -1.0706    4.3933   15.2093 C   0  0  0  0  0  0  0  0  0  0  0  0
   -0.5070    3.6277   16.2846 O   0  0  0  0  0  0  0  0  0  0  0  0
   -1.6982    4.1451   12.8017 C   0  0  0  0  0  0  0  0  0  0  0  0
    1.3267    1.6647   16.7967 N   0  0  0  0  0  0  0  0  0  0  0  0
    1.8453    0.4519   16.1103 C   0  0  0  0  0  0  0  0  0  0  0  0
    0.6754   -0.4218   15.6482 C   0  0  0  0  0  0  0  0  0  0  0  0
    0.9283   -1.8282   16.0342 N   0  0  0  0  0  0  0  0  0  0  0  0
    0.1003   -2.7292   15.1820 C   0  0  0  0  0  0  0  0  0  0  0  0
    0.5872   -2.0147   17.4729 C   0  0  0  0  0  0  0  0  0  0  0  0
    0.3575   -4.1909   15.5827 C   0  0  0  0  0  0  0  0  0  0  0  0
    0.8408   -3.4789   17.8744 C   0  0  0  0  0  0  0  0  0  0  0  0
    0.0153   -4.3783   17.0212 N   0  0  0  0  0  0  0  0  0  0  0  0
    0.7346    6.4488   18.4597 C   0  0  0  0  0  0  0  0  0  0  0  0
    5.5663    9.0841   21.8902 N   0  0  0  0  0  0  0  0  0  0  0  0
    2.0809    6.0659   18.6699 C   0  0  0  0  0  0  0  0  0  0  0  0
    2.5788    4.8747   18.0779 C   0  0  0  0  0  0  0  0  0  0  0  0
    1.7301    4.0670   17.2721 C   0  0  0  0  0  0  0  0  0  0  0  0
    0.3684    4.4464   17.0748 C   0  0  0  0  0  0  0  0  0  0  0  0
   -0.1236    5.6416   17.6674 C   0  0  0  0  0  0  0  0  0  0  0  0
    6.3642    8.0080   22.3407 C   0  0  0  0  0  0  0  0  0  0  0  0
    5.9034    6.7812   21.8114 C   0  0  0  0  0  0  0  0  0  0  0  0
    3.9612    6.2735   20.2194 C   0  0  0  0  0  0  0  0  0  0  0  0
    2.9114    6.8666   19.4668 C   0  0  0  0  0  0  0  0  0  0  0  0
    2.7095    8.2733   19.5181 C   0  0  0  0  0  0  0  0  0  0  0  0
    3.5578    9.0848   20.3190 C   0  0  0  0  0  0  0  0  0  0  0  0
    4.6218    8.4868   21.0641 C   0  0  0  0  0  0  0  0  0  0  0  0
    4.8227    7.0952   21.0150 C   0  0  0  0  0  0  0  0  0  0  0  0
  1  6  1  0  0  0  0
  2  4  1  0  0  0  0
  3  7  1  0  0  0  0
  4  5  1  0  0  0  0
  6  2  1  0  0  0  0
  7  8  1  0  0  0  0
  8  9  1  0  0  0  0
  9 10  1  0  0  0  0
 10 11  1  0  0  0  0
 10 12  1  0  0  0  0
 11 13  1  0  0  0  0
 13 15  1  0  0  0  0
 14 12  1  0  0  0  0
 15 14  1  0  0  0  0
 16 18  2  0  0  0  0
 16 22  1  0  0  0  0
 17 23  1  0  0  0  0
 17 29  1  0  0  0  0
 18 19  1  0  0  0  0
 18 26  1  0  0  0  0
 19 20  2  0  0  0  0
 20  3  1  0  0  0  0
 20 21  1  0  0  0  0
 21  5  1  0  0  0  0
 21 22  2  0  0  0  0
 23 24  2  0  0  0  0
 24 30  1  0  0  0  0
 25 26  2  0  0  0  0
 25 30  1  0  0  0  0
 26 27  1  0  0  0  0
 27 28  2  0  0  0  0
 28 29  1  0  0  0  0
 29 30  2  0  0  0  0
M  END
>  <CHROM.1>
-16.20150369,-155.75469340,176.53369469,163.49555808,141.69361727,-151.74704968
-132.68433180,-159.07218883,149.24981662,135.73911174,-123.30254898,1.58491344
3.34339194,17.51293770,2.19465478,0.88336960,3.13741314

>  <Name>
1uts_lig

>  <RI>
0

>  <Rbt.Current_Directory>
/home/itssahil/PROJECTS/Mol_Feturizer/New_Systems/rnas/1uts

>  <Rbt.Executable>
rbdock ($Id: //depot/dev/client3/rdock/2013.1/src/exe/rbdock.cxx#4 $)

>  <Rbt.Library>
libRbt.so (2013.1, Build901 2013/11/27)

>  <Rbt.Parameter_File>
/export/apps/rDock/src/rDock_2013.1_src/data/scripts/dock_solv.prm

>  <Rbt.Receptor>
prm/pocket_docking_6.prm

>  <SCORE>
-34.9815

>  <SCORE.INTER>
-37.0209

>  <SCORE.INTER.CONST>
1

>  <SCORE.INTER.POLAR>
-3.5379

>  <SCORE.INTER.ROT>
10

>  <SCORE.INTER.SOLV>
8.12956

>  <SCORE.INTER.VDW>
-25.8641

>  <SCORE.INTER.norm>
-1.23403

>  <SCORE.INTRA>
2.03933

>  <SCORE.INTRA.DIHEDRAL>
4.93544

>  <SCORE.INTRA.DIHEDRAL.0>
18.0451

>  <SCORE.INTRA.POLAR>
-0.448565

>  <SCORE.INTRA.POLAR.0>
-0.196815

>  <SCORE.INTRA.REPUL>
0

>  <SCORE.INTRA.REPUL.0>
0

>  <SCORE.INTRA.SOLV>
-0.274896

>  <SCORE.INTRA.SOLV.lig_0>
-14.7906

>  <SCORE.INTRA.VDW>
1.23418

>  <SCORE.INTRA.VDW.0>
-0.411701

>  <SCORE.INTRA.norm>
0.0679777

>  <SCORE.RESTR>
0

>  <SCORE.RESTR.CAVITY>
0

>  <SCORE.RESTR.norm>
0

>  <SCORE.SYSTEM>
0

>  <SCORE.SYSTEM.CONST>
0

>  <SCORE.SYSTEM.DIHEDRAL>
0

>  <SCORE.SYSTEM.SOLV>
0

>  <SCORE.SYSTEM.norm>
0

>  <SCORE.heavy>
30

>  <SCORE.norm>
-1.16605

>  <RMSD>
8.090

$$$$
1uts_lig
 OpenBabel11021811413D
libRbt.so/2013.1/901 2013/11/27
 30 33  0  0  0  0  0  0  0  0999 V2000
    1.2919    3.7021   20.0626 N   0  0  0  0  0  0  0  0  0  0  0  0
    0.8935    3.7000   17.6381 C   0  0  0  0  0  0  0  0  0  0  0  0
   -1.4782    4.1929   13.6385 C   0  0  0  0  0  0  0  0  0  0  0  0
   -0.3798    3.4045   16.8401 C   0  0  0  0  0  0  0  0  0  0  0  0
   -1.0366    4.6390   16.5172 O   0  0  0  0  0  0  0  0  0  0  0  0
    0.9066    2.8537   18.9124 C   0  0  0  0  0  0  0  0  0  0  0  0
   -1.6745    3.1350   12.6215 N   0  0  0  0  0  0  0  0  0  0  0  0
   -1.3426    3.6681   11.2736 C   0  0  0  0  0  0  0  0  0  0  0  0
   -2.5581    4.3945   10.6903 C   0  0  0  0  0  0  0  0  0  0  0  0
   -2.1024    5.4228    9.7281 N   0  0  0  0  0  0  0  0  0  0  0  0
   -3.1241    6.5059    9.6443 C   0  0  0  0  0  0  0  0  0  0  0  0
   -1.9000    4.7943    8.3921 C   0  0  0  0  0  0  0  0  0  0  0  0
   -2.6560    7.5741    8.6428 C   0  0  0  0  0  0  0  0  0  0  0  0
   -1.4348    5.8638    7.3874 C   0  0  0  0  0  0  0  0  0  0  0  0
   -2.4546    6.9463    7.3061 N   0  0  0  0  0  0  0  0  0  0  0  0
   -4.7735    4.1224   16.5282 C   0  0  0  0  0  0  0  0  0  0  0  0
  -10.3872    3.1675   13.6134 N   0  0  0  0  0  0  0  0  0  0  0  0
   -5.0304    3.9211   15.1509 C   0  0  0  0  0  0  0  0  0  0  0  0
   -3.9580    3.9457   14.2198 C   0  0  0  0  0  0  0  0  0  0  0  0
   -2.6268    4.1687   14.6671 C   0  0  0  0  0  0  0  0  0  0  0  0
   -2.3721    4.3876   16.0543 C   0  0  0  0  0  0  0  0  0  0  0  0
   -3.4491    4.3588   16.9821 C   0  0  0  0  0  0  0  0  0  0  0  0
  -10.9771    3.5613   14.8360 C   0  0  0  0  0  0  0  0  0  0  0  0
   -9.9889    3.9034   15.7868 C   0  0  0  0  0  0  0  0  0  0  0  0
   -7.4338    3.9382   15.6012 C   0  0  0  0  0  0  0  0  0  0  0  0
   -6.3457    3.7033   14.7173 C   0  0  0  0  0  0  0  0  0  0  0  0
   -6.5940    3.2540   13.3911 C   0  0  0  0  0  0  0  0  0  0  0  0
   -7.9282    3.0425   12.9499 C   0  0  0  0  0  0  0  0  0  0  0  0
   -9.0214    3.2930   13.8371 C   0  0  0  0  0  0  0  0  0  0  0  0
   -8.7777    3.7370   15.1496 C   0  0  0  0  0  0  0  0  0  0  0  0
  1  6  1  0  0  0  0
  2  4  1  0  0  0  0
  3  7  1  0  0  0  0
  4  5  1  0  0  0  0
  6  2  1  0  0  0  0
  7  8  1  0  0  0  0
  8  9  1  0  0  0  0
  9 10  1  0  0  0  0
 10 11  1  0  0  0  0
 10 12  1  0  0  0  0
 11 13  1  0  0  0  0
 13 15  1  0  0  0  0
 14 12  1  0  0  0  0
 15 14  1  0  0  0  0
 16 18  2  0  0  0  0
 16 22  1  0  0  0  0
 17 23  1  0  0  0  0
 17 29  1  0  0  0  0
 18 19  1  0  0  0  0
 18 26  1  0  0  0  0
 19 20  2  0  0  0  0
 20  3  1  0  0  0  0
 20 21  1  0  0  0  0
 21  5  1  0  0  0  0
 21 22  2  0  0  0  0
 23 24  2  0  0  0  0
 24 30  1  0  0  0  0
 25 26  2  0  0  0  0
 25 30  1  0  0  0  0
 26 27  1  0  0  0  0
 27 28  2  0  0  0  0
 28 29  1  0  0  0  0
 29 30  2  0  0  0  0
M  END
>  <CHROM.1>
176.46577798,128.73419812,138.32389243,-166.44979773,-134.29315383,-84.43861122
153.54214941,-153.95870164,12.12744778,-40.33824043,-89.46418135,-3.78948886
4.26946715,13.71117430,-1.12725153,-0.09188427,-1.32735103

>  <Name>
1uts_lig

>  <RI>
0

>  <Rbt.Current_Directory>
/home/itssahil/PROJECTS/Mol_Feturizer/New_Systems/rnas/1uts

>  <Rbt.Executable>
rbdock ($Id: //depot/dev/client3/rdock/2013.1/src/exe/rbdock.cxx#4 $)

>  <Rbt.Library>
libRbt.so (2013.1, Build901 2013/11/27)

>  <Rbt.Parameter_File>
/export/apps/rDock/src/rDock_2013.1_src/data/scripts/dock_solv.prm

>  <Rbt.Receptor>
prm/pocket_docking_8.prm

>  <SCORE>
-32.8351

>  <SCORE.INTER>
-38.5507

>  <SCORE.INTER.CONST>
1

>  <SCORE.INTER.POLAR>
-1.92515

>  <SCORE.INTER.ROT>
10

>  <SCORE.INTER.SOLV>
10.6259

>  <SCORE.INTER.VDW>
-33.0919

>  <SCORE.INTER.norm>
-1.28502

>  <SCORE.INTRA>
5.60727

>  <SCORE.INTRA.DIHEDRAL>
6.37196

>  <SCORE.INTRA.DIHEDRAL.0>
18.0451

>  <SCORE.INTRA.POLAR>
0.196815

>  <SCORE.INTRA.POLAR.0>
-0.196815

>  <SCORE.INTRA.REPUL>
0

>  <SCORE.INTRA.REPUL.0>
0

>  <SCORE.INTRA.SOLV>
-0.602782

>  <SCORE.INTRA.SOLV.lig_0>
-14.7906

>  <SCORE.INTRA.VDW>
2.05351

>  <SCORE.INTRA.VDW.0>
-0.411701

>  <SCORE.INTRA.norm>
0.186909

>  <SCORE.RESTR>
0.108362

>  <SCORE.RESTR.CAVITY>
0.108362

>  <SCORE.RESTR.norm>
0.00361207

>  <SCORE.SYSTEM>
0

>  <SCORE.SYSTEM.CONST>
0

>  <SCORE.SYSTEM.DIHEDRAL>
0

>  <SCORE.SYSTEM.SOLV>
0

>  <SCORE.SYSTEM.norm>
0

>  <SCORE.heavy>
30

>  <SCORE.norm>
-1.0945

>  <RMSD>
8.104

$$$$
1uts_lig
 OpenBabel11021811413D
libRbt.so/2013.1/901 2013/11/27
 30 33  0  0  0  0  0  0  0  0999 V2000
    1.8397    3.6963   15.5498 N   0  0  0  0  0  0  0  0  0  0  0  0
    0.6250    3.8357   17.6811 C   0  0  0  0  0  0  0  0  0  0  0  0
   -1.7421    3.8500   14.0387 C   0  0  0  0  0  0  0  0  0  0  0  0
   -0.7253    3.5074   17.0377 C   0  0  0  0  0  0  0  0  0  0  0  0
   -1.4660    4.7207   16.8399 O   0  0  0  0  0  0  0  0  0  0  0  0
    1.4992    4.5915   16.6787 C   0  0  0  0  0  0  0  0  0  0  0  0
   -1.5619    5.0740   13.2253 N   0  0  0  0  0  0  0  0  0  0  0  0
   -1.9221    4.7926   11.8104 C   0  0  0  0  0  0  0  0  0  0  0  0
   -1.7700    6.0665   10.9741 C   0  0  0  0  0  0  0  0  0  0  0  0
   -2.2039    5.7984    9.5846 N   0  0  0  0  0  0  0  0  0  0  0  0
   -3.6564    5.4604    9.5789 C   0  0  0  0  0  0  0  0  0  0  0  0
   -1.4053    4.6707    9.0264 C   0  0  0  0  0  0  0  0  0  0  0  0
   -4.1098    5.1775    8.1375 C   0  0  0  0  0  0  0  0  0  0  0  0
   -1.8611    4.3840    7.5844 C   0  0  0  0  0  0  0  0  0  0  0  0
   -3.3124    4.0489    7.5792 N   0  0  0  0  0  0  0  0  0  0  0  0
   -5.2101    4.2855   16.6841 C   0  0  0  0  0  0  0  0  0  0  0  0
  -10.6607    2.9818   13.6047 N   0  0  0  0  0  0  0  0  0  0  0  0
   -5.3873    3.8819   15.3391 C   0  0  0  0  0  0  0  0  0  0  0  0
   -4.2593    3.7432   14.4872 C   0  0  0  0  0  0  0  0  0  0  0  0
   -2.9522    4.0054   14.9818 C   0  0  0  0  0  0  0  0  0  0  0  0
   -2.7772    4.4281   16.3338 C   0  0  0  0  0  0  0  0  0  0  0  0
   -3.9098    4.5622   17.1829 C   0  0  0  0  0  0  0  0  0  0  0  0
  -11.3083    3.3994   14.7895 C   0  0  0  0  0  0  0  0  0  0  0  0
  -10.3670    3.7877   15.7698 C   0  0  0  0  0  0  0  0  0  0  0  0
   -7.8074    3.8660   15.6890 C   0  0  0  0  0  0  0  0  0  0  0  0
   -6.6792    3.6265   14.8582 C   0  0  0  0  0  0  0  0  0  0  0  0
   -6.8636    3.1344   13.5368 C   0  0  0  0  0  0  0  0  0  0  0  0
   -8.1742    2.8847   13.0473 C   0  0  0  0  0  0  0  0  0  0  0  0
   -9.3079    3.1398   13.8807 C   0  0  0  0  0  0  0  0  0  0  0  0
   -9.1274    3.6261   15.1885 C   0  0  0  0  0  0  0  0  0  0  0  0
  1  6  1  0  0  0  0
  2  4  1  0  0  0  0
  3  7  1  0  0  0  0
  4  5  1  0  0  0  0
  6  2  1  0  0  0  0
  7  8  1  0  0  0  0
  8  9  1  0  0  0  0
  9 10  1  0  0  0  0
 10 11  1  0  0  0  0
 10 12  1  0  0  0  0
 11 13  1  0  0  0  0
 13 15  1  0  0  0  0
 14 12  1  0  0  0  0
 15 14  1  0  0  0  0
 16 18  2  0  0  0  0
 16 22  1  0  0  0  0
 17 23  1  0  0  0  0
 17 29  1  0  0  0  0
 18 19  1  0  0  0  0
 18 26  1  0  0  0  0
 19 20  2  0  0  0  0
 20  3  1  0  0  0  0
 20 21  1  0  0  0  0
 21  5  1  0  0  0  0
 21 22  2  0  0  0  0
 23 24  2  0  0  0  0
 24 30  1  0  0  0  0
 25 26  2  0  0  0  0
 25 30  1  0  0  0  0
 26 27  1  0  0  0  0
 27 28  2  0  0  0  0
 28 29  1  0  0  0  0
 29 30  2  0  0  0  0
M  END
>  <CHROM.1>
-170.35711086,-68.63009451,-109.43582598,-175.52172268,-66.22467585,178.58937624
-176.78557884,63.79772485,4.55509936,83.15494527,-73.28873354,-4.04237121
4.19174396,13.60149162,-0.18159539,0.11164600,1.67905916

>  <Name>
1uts_lig

>  <RI>
0

>  <Rbt.Current_Directory>
/home/itssahil/PROJECTS/Mol_Feturizer/New_Systems/rnas/1uts

>  <Rbt.Executable>
rbdock ($Id: //depot/dev/client3/rdock/2013.1/src/exe/rbdock.cxx#4 $)

>  <Rbt.Library>
libRbt.so (2013.1, Build901 2013/11/27)

>  <Rbt.Parameter_File>
/export/apps/rDock/src/rDock_2013.1_src/data/scripts/dock_solv.prm

>  <Rbt.Receptor>
prm/pocket_docking_6.prm

>  <SCORE>
-49.9902

>  <SCORE.INTER>
-50.2568

>  <SCORE.INTER.CONST>
1

>  <SCORE.INTER.POLAR>
-2.81548

>  <SCORE.INTER.ROT>
10

>  <SCORE.INTER.SOLV>
12.6971

>  <SCORE.INTER.VDW>
-38.6186

>  <SCORE.INTER.norm>
-1.67523

>  <SCORE.INTRA>
0.266618

>  <SCORE.INTRA.DIHEDRAL>
-8.72555

>  <SCORE.INTRA.DIHEDRAL.0>
18.0451

>  <SCORE.INTRA.POLAR>
0.196815

>  <SCORE.INTRA.POLAR.0>
-0.196815

>  <SCORE.INTRA.REPUL>
0

>  <SCORE.INTRA.REPUL.0>
0

>  <SCORE.INTRA.SOLV>
-0.140251

>  <SCORE.INTRA.SOLV.lig_0>
-14.7906

>  <SCORE.INTRA.VDW>
4.03035

>  <SCORE.INTRA.VDW.0>
-0.411701

>  <SCORE.INTRA.norm>
0.00888727

>  <SCORE.RESTR>
0

>  <SCORE.RESTR.CAVITY>
0

>  <SCORE.RESTR.norm>
0

>  <SCORE.SYSTEM>
0

>  <SCORE.SYSTEM.CONST>
0

>  <SCORE.SYSTEM.DIHEDRAL>
0

>  <SCORE.SYSTEM.SOLV>
0

>  <SCORE.SYSTEM.norm>
0

>  <SCORE.heavy>
30

>  <SCORE.norm>
-1.66634

>  <RMSD>
8.105

$$$$
1uts_lig
 OpenBabel11021811413D
libRbt.so/2013.1/901 2013/11/27
 30 33  0  0  0  0  0  0  0  0999 V2000
  -10.3935    3.5720   14.1429 N   0  0  0  0  0  0  0  0  0  0  0  0
   -7.9931    3.2920   13.6992 C   0  0  0  0  0  0  0  0  0  0  0  0
   -2.6988    3.3977   13.4712 C   0  0  0  0  0  0  0  0  0  0  0  0
   -6.8361    2.2892   13.7286 C   0  0  0  0  0  0  0  0  0  0  0  0
   -5.6123    2.9644   13.4026 O   0  0  0  0  0  0  0  0  0  0  0  0
   -9.2953    2.5818   14.0734 C   0  0  0  0  0  0  0  0  0  0  0  0
   -1.6714    2.4191   13.8942 N   0  0  0  0  0  0  0  0  0  0  0  0
   -0.7605    3.0471   14.8877 C   0  0  0  0  0  0  0  0  0  0  0  0
    0.1949    1.9923   15.4535 C   0  0  0  0  0  0  0  0  0  0  0  0
    1.1854    2.6480   16.3366 N   0  0  0  0  0  0  0  0  0  0  0  0
    0.4847    3.2232   17.5207 C   0  0  0  0  0  0  0  0  0  0  0  0
    1.8904    3.7198   15.5782 C   0  0  0  0  0  0  0  0  0  0  0  0
    1.5100    3.9085   18.4385 C   0  0  0  0  0  0  0  0  0  0  0  0
    2.9148    4.4094   16.4973 C   0  0  0  0  0  0  0  0  0  0  0  0
    2.2146    4.9814   17.6809 N   0  0  0  0  0  0  0  0  0  0  0  0
   -5.2764    4.4259   16.8643 C   0  0  0  0  0  0  0  0  0  0  0  0
   -1.4436    6.8093   21.5226 N   0  0  0  0  0  0  0  0  0  0  0  0
   -3.8786    4.6331   16.9441 C   0  0  0  0  0  0  0  0  0  0  0  0
   -3.0490    4.2973   15.8411 C   0  0  0  0  0  0  0  0  0  0  0  0
   -3.6185    3.7565   14.6558 C   0  0  0  0  0  0  0  0  0  0  0  0
   -5.0264    3.5332   14.5834 C   0  0  0  0  0  0  0  0  0  0  0  0
   -5.8522    3.8741   15.6895 C   0  0  0  0  0  0  0  0  0  0  0  0
   -0.1211    6.8294   21.0245 C   0  0  0  0  0  0  0  0  0  0  0  0
   -0.0665    6.3022   19.7143 C   0  0  0  0  0  0  0  0  0  0  0  0
   -1.9247    5.4011   18.1980 C   0  0  0  0  0  0  0  0  0  0  0  0
   -3.3241    5.1654   18.1166 C   0  0  0  0  0  0  0  0  0  0  0  0
   -4.1609    5.4767   19.2235 C   0  0  0  0  0  0  0  0  0  0  0  0
   -3.5989    6.0248   20.4081 C   0  0  0  0  0  0  0  0  0  0  0  0
   -2.1926    6.2738   20.4817 C   0  0  0  0  0  0  0  0  0  0  0  0
   -1.3631    5.9658   19.3879 C   0  0  0  0  0  0  0  0  0  0  0  0
  1  6  1  0  0  0  0
  2  4  1  0  0  0  0
  3  7  1  0  0  0  0
  4  5  1  0  0  0  0
  6  2  1  0  0  0  0
  7  8  1  0  0  0  0
  8  9  1  0  0  0  0
  9 10  1  0  0  0  0
 10 11  1  0  0  0  0
 10 12  1  0  0  0  0
 11 13  1  0  0  0  0
 13 15  1  0  0  0  0
 14 12  1  0  0  0  0
 15 14  1  0  0  0  0
 16 18  2  0  0  0  0
 16 22  1  0  0  0  0
 17 23  1  0  0  0  0
 17 29  1  0  0  0  0
 18 19  1  0  0  0  0
 18 26  1  0  0  0  0
 19 20  2  0  0  0  0
 20  3  1  0  0  0  0
 20 21  1  0  0  0  0
 21  5  1  0  0  0  0
 21 22  2  0  0  0  0
 23 24  2  0  0  0  0
 24 30  1  0  0  0  0
 25 26  2  0  0  0  0
 25 30  1  0  0  0  0
 26 27  1  0  0  0  0
 27 28  2  0  0  0  0
 28 29  1  0  0  0  0
 29 30  2  0  0  0  0
M  END
>  <CHROM.1>
-68.53981158,-178.87827390,-65.68426345,86.71943872,175.80904463,173.14132630
174.32096017,65.06624326,-178.80668119,57.80743574,154.07109001,-2.66585762
4.18704848,16.63374093,2.62115279,0.08116753,-2.10010040

>  <Name>
1uts_lig

>  <RI>
0

>  <Rbt.Current_Directory>
/home/itssahil/PROJECTS/Mol_Feturizer/New_Systems/rnas/1uts

>  <Rbt.Executable>
rbdock ($Id: //depot/dev/client3/rdock/2013.1/src/exe/rbdock.cxx#4 $)

>  <Rbt.Library>
libRbt.so (2013.1, Build901 2013/11/27)

>  <Rbt.Parameter_File>
/export/apps/rDock/src/rDock_2013.1_src/data/scripts/dock_solv.prm

>  <Rbt.Receptor>
prm/pocket_docking_5.prm

>  <SCORE>
-26.8199

>  <SCORE.INTER>
-29.9566

>  <SCORE.INTER.CONST>
1

>  <SCORE.INTER.POLAR>
-1.13758

>  <SCORE.INTER.ROT>
10

>  <SCORE.INTER.SOLV>
8.55792

>  <SCORE.INTER.VDW>
-29.2985

>  <SCORE.INTER.norm>
-0.998554

>  <SCORE.INTRA>
2.81404

>  <SCORE.INTRA.DIHEDRAL>
-12.8098

>  <SCORE.INTRA.DIHEDRAL.0>
18.0451

>  <SCORE.INTRA.POLAR>
0.196815

>  <SCORE.INTRA.POLAR.0>
-0.196815

>  <SCORE.INTRA.REPUL>
0

>  <SCORE.INTRA.REPUL.0>
0

>  <SCORE.INTRA.SOLV>
-0.381554

>  <SCORE.INTRA.SOLV.lig_0>
-14.7906

>  <SCORE.INTRA.VDW>
8.74055

>  <SCORE.INTRA.VDW.0>
-0.411701

>  <SCORE.INTRA.norm>
0.0938013

>  <SCORE.RESTR>
0.322626

>  <SCORE.RESTR.CAVITY>
0.322626

>  <SCORE.RESTR.norm>
0.0107542

>  <SCORE.SYSTEM>
0

>  <SCORE.SYSTEM.CONST>
0

>  <SCORE.SYSTEM.DIHEDRAL>
0

>  <SCORE.SYSTEM.SOLV>
0

>  <SCORE.SYSTEM.norm>
0

>  <SCORE.heavy>
30

>  <SCORE.norm>
-0.893998

>  <RMSD>
8.135

$$$$
1uts_lig
 OpenBabel11021811413D
libRbt.so/2013.1/901 2013/11/27
 30 33  0  0  0  0  0  0  0  0999 V2000
    1.7143   -4.5524   16.5339 N   0  0  0  0  0  0  0  0  0  0  0  0
    0.3379   -3.1284   15.0796 C   0  0  0  0  0  0  0  0  0  0  0  0
   -1.0986    1.1965   14.9355 C   0  0  0  0  0  0  0  0  0  0  0  0
    0.7681   -1.8641   15.8290 C   0  0  0  0  0  0  0  0  0  0  0  0
    1.0475   -0.8216   14.8830 O   0  0  0  0  0  0  0  0  0  0  0  0
    0.3381   -4.3181   16.0413 C   0  0  0  0  0  0  0  0  0  0  0  0
   -2.1538    1.9576   15.6420 N   0  0  0  0  0  0  0  0  0  0  0  0
   -2.2792    3.3132   15.0440 C   0  0  0  0  0  0  0  0  0  0  0  0
   -3.5369    4.0021   15.5817 C   0  0  0  0  0  0  0  0  0  0  0  0
   -3.4276    4.1506   17.0503 N   0  0  0  0  0  0  0  0  0  0  0  0
   -4.6852    4.7528   17.5792 C   0  0  0  0  0  0  0  0  0  0  0  0
   -2.2596    5.0177   17.3738 C   0  0  0  0  0  0  0  0  0  0  0  0
   -4.5739    4.9122   19.1041 C   0  0  0  0  0  0  0  0  0  0  0  0
   -2.1493    5.1810   18.9004 C   0  0  0  0  0  0  0  0  0  0  0  0
   -3.4065    5.7804   19.4282 N   0  0  0  0  0  0  0  0  0  0  0  0
    2.7796    1.8850   16.8591 C   0  0  0  0  0  0  0  0  0  0  0  0
    2.5844    7.7952   19.5182 N   0  0  0  0  0  0  0  0  0  0  0  0
    1.7811    2.8877   16.8917 C   0  0  0  0  0  0  0  0  0  0  0  0
    0.5268    2.6582   16.2660 C   0  0  0  0  0  0  0  0  0  0  0  0
    0.2697    1.4234   15.6096 C   0  0  0  0  0  0  0  0  0  0  0  0
    1.2838    0.4200   15.5638 C   0  0  0  0  0  0  0  0  0  0  0  0
    2.5364    0.6541   16.1945 C   0  0  0  0  0  0  0  0  0  0  0  0
    1.2412    8.2336   19.4844 C   0  0  0  0  0  0  0  0  0  0  0  0
    0.4187    7.2915   18.8260 C   0  0  0  0  0  0  0  0  0  0  0  0
    0.9853    5.0228   17.7792 C   0  0  0  0  0  0  0  0  0  0  0  0
    2.0425    4.1032   17.5396 C   0  0  0  0  0  0  0  0  0  0  0  0
    3.3633    4.4152   17.9642 C   0  0  0  0  0  0  0  0  0  0  0  0
    3.6251    5.6436   18.6291 C   0  0  0  0  0  0  0  0  0  0  0  0
    2.5570    6.5605   18.8810 C   0  0  0  0  0  0  0  0  0  0  0  0
    1.2497    6.2538   18.4611 C   0  0  0  0  0  0  0  0  0  0  0  0
  1  6  1  0  0  0  0
  2  4  1  0  0  0  0
  3  7  1  0  0  0  0
  4  5  1  0  0  0  0
  6  2  1  0  0  0  0
  7  8  1  0  0  0  0
  8  9  1  0  0  0  0
  9 10  1  0  0  0  0
 10 11  1  0  0  0  0
 10 12  1  0  0  0  0
 11 13  1  0  0  0  0
 13 15  1  0  0  0  0
 14 12  1  0  0  0  0
 15 14  1  0  0  0  0
 16 18  2  0  0  0  0
 16 22  1  0  0  0  0
 17 23  1  0  0  0  0
 17 29  1  0  0  0  0
 18 19  1  0  0  0  0
 18 26  1  0  0  0  0
 19 20  2  0  0  0  0
 20  3  1  0  0  0  0
 20 21  1  0  0  0  0
 21  5  1  0  0  0  0
 21 22  2  0  0  0  0
 23 24  2  0  0  0  0
 24 30  1  0  0  0  0
 25 26  2  0  0  0  0
 25 30  1  0  0  0  0
 26 27  1  0  0  0  0
 27 28  2  0  0  0  0
 28 29  1  0  0  0  0
 29 30  2  0  0  0  0
M  END
>  <CHROM.1>
13.79841681,167.59470977,89.94583573,172.52639695,-62.92667750,169.12543626
61.28840775,-176.90153777,-169.26965022,-29.88791195,-102.51030264,-0.02744255
2.93063963,17.10337890,-1.44163317,-0.10598750,0.35497475

>  <Name>
1uts_lig

>  <RI>
0

>  <Rbt.Current_Directory>
/home/itssahil/PROJECTS/Mol_Feturizer/New_Systems/rnas/1uts

>  <Rbt.Executable>
rbdock ($Id: //depot/dev/client3/rdock/2013.1/src/exe/rbdock.cxx#4 $)

>  <Rbt.Library>
libRbt.so (2013.1, Build901 2013/11/27)

>  <Rbt.Parameter_File>
/export/apps/rDock/src/rDock_2013.1_src/data/scripts/dock_solv.prm

>  <Rbt.Receptor>
prm/pocket_docking_6.prm

>  <SCORE>
-36.3267

>  <SCORE.INTER>
-36.2365

>  <SCORE.INTER.CONST>
1

>  <SCORE.INTER.POLAR>
-3.06002

>  <SCORE.INTER.ROT>
10

>  <SCORE.INTER.SOLV>
9.55862

>  <SCORE.INTER.VDW>
-27.4105

>  <SCORE.INTER.norm>
-1.20788

>  <SCORE.INTRA>
-0.0902192

>  <SCORE.INTRA.DIHEDRAL>
-6.46011

>  <SCORE.INTRA.DIHEDRAL.0>
18.0451

>  <SCORE.INTRA.POLAR>
0.196815

>  <SCORE.INTRA.POLAR.0>
-0.196815

>  <SCORE.INTRA.REPUL>
0

>  <SCORE.INTRA.REPUL.0>
0

>  <SCORE.INTRA.SOLV>
-0.0786693

>  <SCORE.INTRA.SOLV.lig_0>
-14.7906

>  <SCORE.INTRA.VDW>
2.51

>  <SCORE.INTRA.VDW.0>
-0.411701

>  <SCORE.INTRA.norm>
-0.00300731

>  <SCORE.RESTR>
0

>  <SCORE.RESTR.CAVITY>
0

>  <SCORE.RESTR.norm>
0

>  <SCORE.SYSTEM>
0

>  <SCORE.SYSTEM.CONST>
0

>  <SCORE.SYSTEM.DIHEDRAL>
0

>  <SCORE.SYSTEM.SOLV>
0

>  <SCORE.SYSTEM.norm>
0

>  <SCORE.heavy>
30

>  <SCORE.norm>
-1.21089

>  <RMSD>
8.171

$$$$
1uts_lig
 OpenBabel11021811413D
libRbt.so/2013.1/901 2013/11/27
 30 33  0  0  0  0  0  0  0  0999 V2000
    4.1196    4.9721   15.4112 N   0  0  0  0  0  0  0  0  0  0  0  0
    3.1038    3.3209   16.9208 C   0  0  0  0  0  0  0  0  0  0  0  0
   -0.8422    2.6516   14.8782 C   0  0  0  0  0  0  0  0  0  0  0  0
    1.9383    2.3311   17.0056 C   0  0  0  0  0  0  0  0  0  0  0  0
    1.7924    1.6584   15.7462 O   0  0  0  0  0  0  0  0  0  0  0  0
    2.8465    4.3184   15.7899 C   0  0  0  0  0  0  0  0  0  0  0  0
   -1.3921    2.6457   13.5035 N   0  0  0  0  0  0  0  0  0  0  0  0
   -1.5271    4.0426   13.0121 C   0  0  0  0  0  0  0  0  0  0  0  0
   -2.1704    4.0427   11.6223 C   0  0  0  0  0  0  0  0  0  0  0  0
   -1.4573    5.0022   10.7495 N   0  0  0  0  0  0  0  0  0  0  0  0
   -1.8706    6.3907   11.1033 C   0  0  0  0  0  0  0  0  0  0  0  0
   -1.7822    4.7100    9.3247 C   0  0  0  0  0  0  0  0  0  0  0  0
   -1.1348    7.3901   10.1961 C   0  0  0  0  0  0  0  0  0  0  0  0
   -1.0489    5.7125    8.4155 C   0  0  0  0  0  0  0  0  0  0  0  0
   -1.4603    7.0991    8.7710 N   0  0  0  0  0  0  0  0  0  0  0  0
   -0.2633   -1.4577   16.2899 C   0  0  0  0  0  0  0  0  0  0  0  0
   -5.9591   -4.5040   15.9446 N   0  0  0  0  0  0  0  0  0  0  0  0
   -1.5492   -1.0143   15.8987 C   0  0  0  0  0  0  0  0  0  0  0  0
   -1.7299    0.3187   15.4426 C   0  0  0  0  0  0  0  0  0  0  0  0
   -0.6227    1.2083   15.3749 C   0  0  0  0  0  0  0  0  0  0  0  0
    0.6701    0.7639   15.7853 C   0  0  0  0  0  0  0  0  0  0  0  0
    0.8455   -0.5725   16.2380 C   0  0  0  0  0  0  0  0  0  0  0  0
   -6.5138   -4.1013   14.7086 C   0  0  0  0  0  0  0  0  0  0  0  0
   -5.7468   -3.0684   14.1233 C   0  0  0  0  0  0  0  0  0  0  0  0
   -3.6031   -1.9189   14.9277 C   0  0  0  0  0  0  0  0  0  0  0  0
   -2.6364   -1.8966   15.9696 C   0  0  0  0  0  0  0  0  0  0  0  0
   -2.7703   -2.7752   17.0797 C   0  0  0  0  0  0  0  0  0  0  0  0
   -3.8678   -3.6755   17.1459 C   0  0  0  0  0  0  0  0  0  0  0  0
   -4.8311   -3.7053   16.0894 C   0  0  0  0  0  0  0  0  0  0  0  0
   -4.7006   -2.8364   14.9906 C   0  0  0  0  0  0  0  0  0  0  0  0
  1  6  1  0  0  0  0
  2  4  1  0  0  0  0
  3  7  1  0  0  0  0
  4  5  1  0  0  0  0
  6  2  1  0  0  0  0
  7  8  1  0  0  0  0
  8  9  1  0  0  0  0
  9 10  1  0  0  0  0
 10 11  1  0  0  0  0
 10 12  1  0  0  0  0
 11 13  1  0  0  0  0
 13 15  1  0  0  0  0
 14 12  1  0  0  0  0
 15 14  1  0  0  0  0
 16 18  2  0  0  0  0
 16 22  1  0  0  0  0
 17 23  1  0  0  0  0
 17 29  1  0  0  0  0
 18 19  1  0  0  0  0
 18 26  1  0  0  0  0
 19 20  2  0  0  0  0
 20  3  1  0  0  0  0
 20 21  1  0  0  0  0
 21  5  1  0  0  0  0
 21 22  2  0  0  0  0
 23 24  2  0  0  0  0
 24 30  1  0  0  0  0
 25 26  2  0  0  0  0
 25 30  1  0  0  0  0
 26 27  1  0  0  0  0
 27 28  2  0  0  0  0
 28 29  1  0  0  0  0
 29 30  2  0  0  0  0
M  END
>  <CHROM.1>
176.70014874,58.00414906,-176.89074846,-177.65523013,-161.49706492,-176.76578519
-136.86456640,-76.43916996,-139.03992944,-59.23096608,91.59755460,-1.37130677
1.43300335,14.19021266,-1.12301874,0.57316788,2.41167289

>  <Name>
1uts_lig

>  <RI>
0

>  <Rbt.Current_Directory>
/home/itssahil/PROJECTS/Mol_Feturizer/New_Systems/rnas/1uts

>  <Rbt.Executable>
rbdock ($Id: //depot/dev/client3/rdock/2013.1/src/exe/rbdock.cxx#4 $)

>  <Rbt.Library>
libRbt.so (2013.1, Build901 2013/11/27)

>  <Rbt.Parameter_File>
/export/apps/rDock/src/rDock_2013.1_src/data/scripts/dock_solv.prm

>  <Rbt.Receptor>
prm/pocket_docking_8.prm

>  <SCORE>
-34.5715

>  <SCORE.INTER>
-33.0162

>  <SCORE.INTER.CONST>
1

>  <SCORE.INTER.POLAR>
-1.57186

>  <SCORE.INTER.ROT>
10

>  <SCORE.INTER.SOLV>
9.23675

>  <SCORE.INTER.VDW>
-30.1168

>  <SCORE.INTER.norm>
-1.10054

>  <SCORE.INTRA>
-1.56161

>  <SCORE.INTRA.DIHEDRAL>
-3.97846

>  <SCORE.INTRA.DIHEDRAL.0>
18.0451

>  <SCORE.INTRA.POLAR>
0.196815

>  <SCORE.INTRA.POLAR.0>
-0.196815

>  <SCORE.INTRA.REPUL>
0

>  <SCORE.INTRA.REPUL.0>
0

>  <SCORE.INTRA.SOLV>
-0.555159

>  <SCORE.INTRA.SOLV.lig_0>
-14.7906

>  <SCORE.INTRA.VDW>
0.0360318

>  <SCORE.INTRA.VDW.0>
-0.411701

>  <SCORE.INTRA.norm>
-0.0520536

>  <SCORE.RESTR>
0.0063187

>  <SCORE.RESTR.CAVITY>
0.0063187

>  <SCORE.RESTR.norm>
0.000210623

>  <SCORE.SYSTEM>
0

>  <SCORE.SYSTEM.CONST>
0

>  <SCORE.SYSTEM.DIHEDRAL>
0

>  <SCORE.SYSTEM.SOLV>
0

>  <SCORE.SYSTEM.norm>
0

>  <SCORE.heavy>
30

>  <SCORE.norm>
-1.15238

>  <RMSD>
8.364

$$$$
1uts_lig
 OpenBabel11021811413D
libRbt.so/2013.1/901 2013/11/27
 30 33  0  0  0  0  0  0  0  0999 V2000
   -1.2362    0.4003   18.9217 N   0  0  0  0  0  0  0  0  0  0  0  0
   -1.5182    2.6109   17.8867 C   0  0  0  0  0  0  0  0  0  0  0  0
   -2.2442    4.1267   13.8466 C   0  0  0  0  0  0  0  0  0  0  0  0
   -1.0679    3.5025   16.7260 C   0  0  0  0  0  0  0  0  0  0  0  0
   -1.8588    4.7000   16.7109 O   0  0  0  0  0  0  0  0  0  0  0  0
   -0.7318    1.2990   17.8589 C   0  0  0  0  0  0  0  0  0  0  0  0
   -2.6525    4.7734   12.5788 N   0  0  0  0  0  0  0  0  0  0  0  0
   -1.5260    4.7305   11.6092 C   0  0  0  0  0  0  0  0  0  0  0  0
   -2.0277    4.2213   10.2548 C   0  0  0  0  0  0  0  0  0  0  0  0
   -1.1216    4.6945    9.1843 N   0  0  0  0  0  0  0  0  0  0  0  0
   -1.4700    6.1006    8.8301 C   0  0  0  0  0  0  0  0  0  0  0  0
   -1.2587    3.8090    7.9935 C   0  0  0  0  0  0  0  0  0  0  0  0
   -0.5332    6.5943    7.7156 C   0  0  0  0  0  0  0  0  0  0  0  0
   -0.3239    4.3046    6.8755 C   0  0  0  0  0  0  0  0  0  0  0  0
   -0.6709    5.7097    6.5240 N   0  0  0  0  0  0  0  0  0  0  0  0
   -5.5910    4.1515   16.6773 C   0  0  0  0  0  0  0  0  0  0  0  0
  -11.1427    3.0225   13.7067 N   0  0  0  0  0  0  0  0  0  0  0  0
   -5.8211    3.8890   15.3056 C   0  0  0  0  0  0  0  0  0  0  0  0
   -4.7321    3.8830   14.3936 C   0  0  0  0  0  0  0  0  0  0  0  0
   -3.4111    4.1367   14.8546 C   0  0  0  0  0  0  0  0  0  0  0  0
   -3.1836    4.4172   16.2354 C   0  0  0  0  0  0  0  0  0  0  0  0
   -4.2771    4.4189   17.1442 C   0  0  0  0  0  0  0  0  0  0  0  0
  -11.7579    3.4609   14.9013 C   0  0  0  0  0  0  0  0  0  0  0  0
  -10.7899    3.8512   15.8543 C   0  0  0  0  0  0  0  0  0  0  0  0
   -8.2323    3.9022   15.7124 C   0  0  0  0  0  0  0  0  0  0  0  0
   -7.1265    3.6412   14.8583 C   0  0  0  0  0  0  0  0  0  0  0  0
   -7.3470    3.1352   13.5477 C   0  0  0  0  0  0  0  0  0  0  0  0
   -8.6712    2.8931   13.0922 C   0  0  0  0  0  0  0  0  0  0  0  0
   -9.7823    3.1699   13.9489 C   0  0  0  0  0  0  0  0  0  0  0  0
   -9.5660    3.6699   15.2460 C   0  0  0  0  0  0  0  0  0  0  0  0
  1  6  1  0  0  0  0
  2  4  1  0  0  0  0
  3  7  1  0  0  0  0
  4  5  1  0  0  0  0
  6  2  1  0  0  0  0
  7  8  1  0  0  0  0
  8  9  1  0  0  0  0
  9 10  1  0  0  0  0
 10 11  1  0  0  0  0
 10 12  1  0  0  0  0
 11 13  1  0  0  0  0
 13 15  1  0  0  0  0
 14 12  1  0  0  0  0
 15 14  1  0  0  0  0
 16 18  2  0  0  0  0
 16 22  1  0  0  0  0
 17 23  1  0  0  0  0
 17 29  1  0  0  0  0
 18 19  1  0  0  0  0
 18 26  1  0  0  0  0
 19 20  2  0  0  0  0
 20  3  1  0  0  0  0
 20 21  1  0  0  0  0
 21  5  1  0  0  0  0
 21 22  2  0  0  0  0
 23 24  2  0  0  0  0
 24 30  1  0  0  0  0
 25 26  2  0  0  0  0
 25 30  1  0  0  0  0
 26 27  1  0  0  0  0
 27 28  2  0  0  0  0
 28 29  1  0  0  0  0
 29 30  2  0  0  0  0
M  END
>  <CHROM.1>
-176.65419037,176.82680237,-178.84468020,-73.55913621,-175.97239528,131.61967372
156.46645937,-81.16229803,12.02469431,39.94565410,-72.58893853,-4.21300289
3.90425529,13.56152217,-2.35057010,-0.00186812,-1.32461849

>  <Name>
1uts_lig

>  <RI>
0

>  <Rbt.Current_Directory>
/home/itssahil/PROJECTS/Mol_Feturizer/New_Systems/rnas/1uts

>  <Rbt.Executable>
rbdock ($Id: //depot/dev/client3/rdock/2013.1/src/exe/rbdock.cxx#4 $)

>  <Rbt.Library>
libRbt.so (2013.1, Build901 2013/11/27)

>  <Rbt.Parameter_File>
/export/apps/rDock/src/rDock_2013.1_src/data/scripts/dock_solv.prm

>  <Rbt.Receptor>
prm/pocket_docking_7.prm

>  <SCORE>
-41.1055

>  <SCORE.INTER>
-40.9316

>  <SCORE.INTER.CONST>
1

>  <SCORE.INTER.POLAR>
-2.27607

>  <SCORE.INTER.ROT>
10

>  <SCORE.INTER.SOLV>
10.3709

>  <SCORE.INTER.VDW>
-33.4245

>  <SCORE.INTER.norm>
-1.36439

>  <SCORE.INTRA>
-0.173847

>  <SCORE.INTRA.DIHEDRAL>
-5.61347

>  <SCORE.INTRA.DIHEDRAL.0>
18.0451

>  <SCORE.INTRA.POLAR>
0.196815

>  <SCORE.INTRA.POLAR.0>
-0.196815

>  <SCORE.INTRA.REPUL>
0

>  <SCORE.INTRA.REPUL.0>
0

>  <SCORE.INTRA.SOLV>
-0.68662

>  <SCORE.INTRA.SOLV.lig_0>
-14.7906

>  <SCORE.INTRA.VDW>
2.30702

>  <SCORE.INTRA.VDW.0>
-0.411701

>  <SCORE.INTRA.norm>
-0.0057949

>  <SCORE.RESTR>
0

>  <SCORE.RESTR.CAVITY>
0

>  <SCORE.RESTR.norm>
0

>  <SCORE.SYSTEM>
0

>  <SCORE.SYSTEM.CONST>
0

>  <SCORE.SYSTEM.DIHEDRAL>
0

>  <SCORE.SYSTEM.SOLV>
0

>  <SCORE.SYSTEM.norm>
0

>  <SCORE.heavy>
30

>  <SCORE.norm>
-1.37018

>  <RMSD>
8.379

$$$$
1uts_lig
 OpenBabel11021811413D
libRbt.so/2013.1/901 2013/11/27
 30 33  0  0  0  0  0  0  0  0999 V2000
    3.5360    6.5617   19.1248 N   0  0  0  0  0  0  0  0  0  0  0  0
    1.1001    6.4652   18.8176 C   0  0  0  0  0  0  0  0  0  0  0  0
   -0.6498    4.2246   14.4535 C   0  0  0  0  0  0  0  0  0  0  0  0
   -0.0680    5.5016   18.5893 C   0  0  0  0  0  0  0  0  0  0  0  0
   -0.1911    5.2267   17.1860 O   0  0  0  0  0  0  0  0  0  0  0  0
    2.4226    5.7186   18.6338 C   0  0  0  0  0  0  0  0  0  0  0  0
   -2.1132    4.4230   14.3471 N   0  0  0  0  0  0  0  0  0  0  0  0
   -2.6532    3.5852   13.2437 C   0  0  0  0  0  0  0  0  0  0  0  0
   -2.0134    4.0021   11.9161 C   0  0  0  0  0  0  0  0  0  0  0  0
   -2.6185    5.2718   11.4550 N   0  0  0  0  0  0  0  0  0  0  0  0
   -3.6072    4.9829   10.3765 C   0  0  0  0  0  0  0  0  0  0  0  0
   -1.5465    6.1751   10.9494 C   0  0  0  0  0  0  0  0  0  0  0  0
   -4.2350    6.2999    9.8923 C   0  0  0  0  0  0  0  0  0  0  0  0
   -2.1745    7.4928   10.4607 C   0  0  0  0  0  0  0  0  0  0  0  0
   -3.1635    7.2033    9.3854 N   0  0  0  0  0  0  0  0  0  0  0  0
    0.2809    1.5321   17.7851 C   0  0  0  0  0  0  0  0  0  0  0  0
    0.1291   -4.5739   15.8158 N   0  0  0  0  0  0  0  0  0  0  0  0
    0.0496    1.0088   16.4905 C   0  0  0  0  0  0  0  0  0  0  0  0
   -0.2520    1.8868   15.4155 C   0  0  0  0  0  0  0  0  0  0  0  0
   -0.3192    3.2901   15.6348 C   0  0  0  0  0  0  0  0  0  0  0  0
   -0.1017    3.8143   16.9444 C   0  0  0  0  0  0  0  0  0  0  0  0
    0.2029    2.9309   18.0160 C   0  0  0  0  0  0  0  0  0  0  0  0
   -0.7138   -4.8937   16.9043 C   0  0  0  0  0  0  0  0  0  0  0  0
   -1.1129   -3.7264   17.5942 C   0  0  0  0  0  0  0  0  0  0  0  0
   -0.5793   -1.2600   17.1514 C   0  0  0  0  0  0  0  0  0  0  0  0
    0.1161   -0.3761   16.2822 C   0  0  0  0  0  0  0  0  0  0  0  0
    0.8732   -0.8983   15.1976 C   0  0  0  0  0  0  0  0  0  0  0  0
    0.9323   -2.3017   14.9821 C   0  0  0  0  0  0  0  0  0  0  0  0
    0.2203   -3.1876   15.8500 C   0  0  0  0  0  0  0  0  0  0  0  0
   -0.5288   -2.6728   16.9239 C   0  0  0  0  0  0  0  0  0  0  0  0
  1  6  1  0  0  0  0
  2  4  1  0  0  0  0
  3  7  1  0  0  0  0
  4  5  1  0  0  0  0
  6  2  1  0  0  0  0
  7  8  1  0  0  0  0
  8  9  1  0  0  0  0
  9 10  1  0  0  0  0
 10 11  1  0  0  0  0
 10 12  1  0  0  0  0
 11 13  1  0  0  0  0
 13 15  1  0  0  0  0
 14 12  1  0  0  0  0
 15 14  1  0  0  0  0
 16 18  2  0  0  0  0
 16 22  1  0  0  0  0
 17 23  1  0  0  0  0
 17 29  1  0  0  0  0
 18 19  1  0  0  0  0
 18 26  1  0  0  0  0
 19 20  2  0  0  0  0
 20  3  1  0  0  0  0
 20 21  1  0  0  0  0
 21  5  1  0  0  0  0
 21 22  2  0  0  0  0
 23 24  2  0  0  0  0
 24 30  1  0  0  0  0
 25 26  2  0  0  0  0
 25 30  1  0  0  0  0
 26 27  1  0  0  0  0
 27 28  2  0  0  0  0
 28 29  1  0  0  0  0
 29 30  2  0  0  0  0
M  END
>  <CHROM.1>
-84.00186850,-73.81937022,-102.27175735,122.96275386,-168.29050943,-61.11936214
-75.90378145,-102.14699187,48.79665885,89.80711949,174.25189408,-0.64267929
2.65405241,15.13038567,-2.07798138,1.05682058,3.04048603

>  <Name>
1uts_lig

>  <RI>
0

>  <Rbt.Current_Directory>
/home/itssahil/PROJECTS/Mol_Feturizer/New_Systems/rnas/1uts

>  <Rbt.Executable>
rbdock ($Id: //depot/dev/client3/rdock/2013.1/src/exe/rbdock.cxx#4 $)

>  <Rbt.Library>
libRbt.so (2013.1, Build901 2013/11/27)

>  <Rbt.Parameter_File>
/export/apps/rDock/src/rDock_2013.1_src/data/scripts/dock_solv.prm

>  <Rbt.Receptor>
prm/pocket_docking_7.prm

>  <SCORE>
-23.7039

>  <SCORE.INTER>
-29.8685

>  <SCORE.INTER.CONST>
1

>  <SCORE.INTER.POLAR>
-2.05542

>  <SCORE.INTER.ROT>
10

>  <SCORE.INTER.SOLV>
11.2293

>  <SCORE.INTER.VDW>
-27.0707

>  <SCORE.INTER.norm>
-0.995616

>  <SCORE.INTRA>
6.16461

>  <SCORE.INTRA.DIHEDRAL>
1.75221

>  <SCORE.INTRA.DIHEDRAL.0>
18.0451

>  <SCORE.INTRA.POLAR>
0.196815

>  <SCORE.INTRA.POLAR.0>
-0.196815

>  <SCORE.INTRA.REPUL>
0

>  <SCORE.INTRA.REPUL.0>
0

>  <SCORE.INTRA.SOLV>
-0.319765

>  <SCORE.INTRA.SOLV.lig_0>
-14.7906

>  <SCORE.INTRA.VDW>
4.77922

>  <SCORE.INTRA.VDW.0>
-0.411701

>  <SCORE.INTRA.norm>
0.205487

>  <SCORE.RESTR>
0

>  <SCORE.RESTR.CAVITY>
0

>  <SCORE.RESTR.norm>
0

>  <SCORE.SYSTEM>
0

>  <SCORE.SYSTEM.CONST>
0

>  <SCORE.SYSTEM.DIHEDRAL>
0

>  <SCORE.SYSTEM.SOLV>
0

>  <SCORE.SYSTEM.norm>
0

>  <SCORE.heavy>
30

>  <SCORE.norm>
-0.790129

>  <RMSD>
8.389

$$$$
1uts_lig
 OpenBabel11021811413D
libRbt.so/2013.1/901 2013/11/27
 30 33  0  0  0  0  0  0  0  0999 V2000
   -2.9151    4.6836   12.1715 N   0  0  0  0  0  0  0  0  0  0  0  0
   -1.3415    4.6236   14.0576 C   0  0  0  0  0  0  0  0  0  0  0  0
    1.4685    4.0600   16.9995 C   0  0  0  0  0  0  0  0  0  0  0  0
   -0.1888    3.7654   14.5866 C   0  0  0  0  0  0  0  0  0  0  0  0
   -0.7070    2.7735   15.4852 O   0  0  0  0  0  0  0  0  0  0  0  0
   -2.2118    3.7878   13.1172 C   0  0  0  0  0  0  0  0  0  0  0  0
    0.3763    4.4477   17.9207 N   0  0  0  0  0  0  0  0  0  0  0  0
    0.6679    5.7814   18.5102 C   0  0  0  0  0  0  0  0  0  0  0  0
    1.3871    5.6087   19.8512 C   0  0  0  0  0  0  0  0  0  0  0  0
    2.7737    5.1500   19.6111 N   0  0  0  0  0  0  0  0  0  0  0  0
    2.8426    3.6720   19.7972 C   0  0  0  0  0  0  0  0  0  0  0  0
    3.6931    5.8372   20.5616 C   0  0  0  0  0  0  0  0  0  0  0  0
    4.2824    3.1923   19.5523 C   0  0  0  0  0  0  0  0  0  0  0  0
    5.1348    5.3549   20.3198 C   0  0  0  0  0  0  0  0  0  0  0  0
    5.2022    3.8784   20.5035 N   0  0  0  0  0  0  0  0  0  0  0  0
    1.4026   -0.2586   16.2512 C   0  0  0  0  0  0  0  0  0  0  0  0
    6.4924   -3.1203   18.8748 N   0  0  0  0  0  0  0  0  0  0  0  0
    2.4756    0.3231   16.9679 C   0  0  0  0  0  0  0  0  0  0  0  0
    2.4909    1.7232   17.2065 C   0  0  0  0  0  0  0  0  0  0  0  0
    1.4304    2.5420   16.7304 C   0  0  0  0  0  0  0  0  0  0  0  0
    0.3577    1.9557   15.9938 C   0  0  0  0  0  0  0  0  0  0  0  0
    0.3461    0.5532   15.7606 C   0  0  0  0  0  0  0  0  0  0  0  0
    5.6357   -4.1029   19.4209 C   0  0  0  0  0  0  0  0  0  0  0  0
    4.2798   -3.7425   19.2498 C   0  0  0  0  0  0  0  0  0  0  0  0
    3.2245   -1.6962   18.1259 C   0  0  0  0  0  0  0  0  0  0  0  0
    3.5184   -0.4905   17.4329 C   0  0  0  0  0  0  0  0  0  0  0  0
    4.8711   -0.1147   17.2063 C   0  0  0  0  0  0  0  0  0  0  0  0
    5.9271   -0.9449   17.6702 C   0  0  0  0  0  0  0  0  0  0  0  0
    5.6281   -2.1643   18.3548 C   0  0  0  0  0  0  0  0  0  0  0  0
    4.2905   -2.5374   18.5804 C   0  0  0  0  0  0  0  0  0  0  0  0
  1  6  1  0  0  0  0
  2  4  1  0  0  0  0
  3  7  1  0  0  0  0
  4  5  1  0  0  0  0
  6  2  1  0  0  0  0
  7  8  1  0  0  0  0
  8  9  1  0  0  0  0
  9 10  1  0  0  0  0
 10 11  1  0  0  0  0
 10 12  1  0  0  0  0
 11 13  1  0  0  0  0
 13 15  1  0  0  0  0
 14 12  1  0  0  0  0
 15 14  1  0  0  0  0
 16 18  2  0  0  0  0
 16 22  1  0  0  0  0
 17 23  1  0  0  0  0
 17 29  1  0  0  0  0
 18 19  1  0  0  0  0
 18 26  1  0  0  0  0
 19 20  2  0  0  0  0
 20  3  1  0  0  0  0
 20 21  1  0  0  0  0
 21  5  1  0  0  0  0
 21 22  2  0  0  0  0
 23 24  2  0  0  0  0
 24 30  1  0  0  0  0
 25 26  2  0  0  0  0
 25 30  1  0  0  0  0
 26 27  1  0  0  0  0
 27 28  2  0  0  0  0
 28 29  1  0  0  0  0
 29 30  2  0  0  0  0
M  END
>  <CHROM.1>
-38.00473146,-69.65571841,162.02799689,179.97564137,-155.10510474,-93.56033721
72.21823900,-98.57795475,-47.87356148,-113.21347866,59.68539293,2.35233709
1.97344863,17.54112447,2.65733983,-0.76623129,0.39886642

>  <Name>
1uts_lig

>  <RI>
0

>  <Rbt.Current_Directory>
/home/itssahil/PROJECTS/Mol_Feturizer/New_Systems/rnas/1uts

>  <Rbt.Executable>
rbdock ($Id: //depot/dev/client3/rdock/2013.1/src/exe/rbdock.cxx#4 $)

>  <Rbt.Library>
libRbt.so (2013.1, Build901 2013/11/27)

>  <Rbt.Parameter_File>
/export/apps/rDock/src/rDock_2013.1_src/data/scripts/dock_solv.prm

>  <Rbt.Receptor>
prm/pocket_docking_2.prm

>  <SCORE>
-8.35299

>  <SCORE.INTER>
-11.4101

>  <SCORE.INTER.CONST>
1

>  <SCORE.INTER.POLAR>
-0.979796

>  <SCORE.INTER.ROT>
10

>  <SCORE.INTER.SOLV>
4.38356

>  <SCORE.INTER.VDW>
-16.0686

>  <SCORE.INTER.norm>
-0.380335

>  <SCORE.INTRA>
0.52367

>  <SCORE.INTRA.DIHEDRAL>
-1.61958

>  <SCORE.INTRA.DIHEDRAL.0>
18.0451

>  <SCORE.INTRA.POLAR>
0.196815

>  <SCORE.INTRA.POLAR.0>
-0.196815

>  <SCORE.INTRA.REPUL>
0

>  <SCORE.INTRA.REPUL.0>
0

>  <SCORE.INTRA.SOLV>
0.00176302

>  <SCORE.INTRA.SOLV.lig_0>
-14.7906

>  <SCORE.INTRA.VDW>
0.663407

>  <SCORE.INTRA.VDW.0>
-0.411701

>  <SCORE.INTRA.norm>
0.0174557

>  <SCORE.RESTR>
2.5334

>  <SCORE.RESTR.CAVITY>
2.5334

>  <SCORE.RESTR.norm>
0.0844468

>  <SCORE.SYSTEM>
0

>  <SCORE.SYSTEM.CONST>
0

>  <SCORE.SYSTEM.DIHEDRAL>
0

>  <SCORE.SYSTEM.SOLV>
0

>  <SCORE.SYSTEM.norm>
0

>  <SCORE.heavy>
30

>  <SCORE.norm>
-0.278433

>  <RMSD>
8.415

$$$$
1uts_lig
 OpenBabel11021811413D
libRbt.so/2013.1/901 2013/11/27
 30 33  0  0  0  0  0  0  0  0999 V2000
    0.5282    1.9498   15.5675 N   0  0  0  0  0  0  0  0  0  0  0  0
   -0.4016    3.4289   17.2952 C   0  0  0  0  0  0  0  0  0  0  0  0
   -3.5175    3.4280   14.2344 C   0  0  0  0  0  0  0  0  0  0  0  0
   -1.8941    3.2244   17.0201 C   0  0  0  0  0  0  0  0  0  0  0  0
   -2.5147    4.4979   16.7899 O   0  0  0  0  0  0  0  0  0  0  0  0
    0.3514    2.1246   17.0268 C   0  0  0  0  0  0  0  0  0  0  0  0
   -2.4883    4.4712   14.0232 N   0  0  0  0  0  0  0  0  0  0  0  0
   -1.5286    4.0240   12.9792 C   0  0  0  0  0  0  0  0  0  0  0  0
   -2.2100    4.0416   11.6077 C   0  0  0  0  0  0  0  0  0  0  0  0
   -1.4869    4.9704   10.7103 N   0  0  0  0  0  0  0  0  0  0  0  0
   -1.8754    6.3727   11.0366 C   0  0  0  0  0  0  0  0  0  0  0  0
   -1.8254    4.6530    9.2941 C   0  0  0  0  0  0  0  0  0  0  0  0
   -1.1291    7.3402   10.1037 C   0  0  0  0  0  0  0  0  0  0  0  0
   -1.0815    5.6237    8.3592 C   0  0  0  0  0  0  0  0  0  0  0  0
   -1.4682    7.0241    8.6872 N   0  0  0  0  0  0  0  0  0  0  0  0
   -6.2199    4.5528   17.4972 C   0  0  0  0  0  0  0  0  0  0  0  0
  -12.2697    3.4741   15.4176 N   0  0  0  0  0  0  0  0  0  0  0  0
   -6.7430    4.0593   16.2782 C   0  0  0  0  0  0  0  0  0  0  0  0
   -5.8617    3.6971   15.2248 C   0  0  0  0  0  0  0  0  0  0  0  0
   -4.4555    3.8256   15.3919 C   0  0  0  0  0  0  0  0  0  0  0  0
   -3.9309    4.3389   16.6161 C   0  0  0  0  0  0  0  0  0  0  0  0
   -4.8177    4.6969   17.6682 C   0  0  0  0  0  0  0  0  0  0  0  0
  -12.2038    3.2108   14.0305 C   0  0  0  0  0  0  0  0  0  0  0  0
  -10.8673    3.2480   13.5721 C   0  0  0  0  0  0  0  0  0  0  0  0
   -8.6790    3.6679   14.8367 C   0  0  0  0  0  0  0  0  0  0  0  0
   -8.1306    3.9366   16.1202 C   0  0  0  0  0  0  0  0  0  0  0  0
   -8.9910    4.0739   17.2441 C   0  0  0  0  0  0  0  0  0  0  0  0
  -10.3967    3.9402   17.0842 C   0  0  0  0  0  0  0  0  0  0  0  0
  -10.9444    3.6560   15.7942 C   0  0  0  0  0  0  0  0  0  0  0  0
  -10.0948    3.5205   14.6810 C   0  0  0  0  0  0  0  0  0  0  0  0
  1  6  1  0  0  0  0
  2  4  1  0  0  0  0
  3  7  1  0  0  0  0
  4  5  1  0  0  0  0
  6  2  1  0  0  0  0
  7  8  1  0  0  0  0
  8  9  1  0  0  0  0
  9 10  1  0  0  0  0
 10 11  1  0  0  0  0
 10 12  1  0  0  0  0
 11 13  1  0  0  0  0
 13 15  1  0  0  0  0
 14 12  1  0  0  0  0
 15 14  1  0  0  0  0
 16 18  2  0  0  0  0
 16 22  1  0  0  0  0
 17 23  1  0  0  0  0
 17 29  1  0  0  0  0
 18 19  1  0  0  0  0
 18 26  1  0  0  0  0
 19 20  2  0  0  0  0
 20  3  1  0  0  0  0
 20 21  1  0  0  0  0
 21  5  1  0  0  0  0
 21 22  2  0  0  0  0
 23 24  2  0  0  0  0
 24 30  1  0  0  0  0
 25 26  2  0  0  0  0
 25 30  1  0  0  0  0
 26 27  1  0  0  0  0
 27 28  2  0  0  0  0
 28 29  1  0  0  0  0
 29 30  2  0  0  0  0
M  END
>  <CHROM.1>
179.07393457,-159.05040127,175.50579295,-176.24240328,77.81006836,71.07774064
119.70271412,-78.39487885,169.05403539,133.62208712,-75.78306645,-4.69184156
4.18773542,14.31854229,-0.41473139,0.00012244,1.87486440

>  <Name>
1uts_lig

>  <RI>
0

>  <Rbt.Current_Directory>
/home/itssahil/PROJECTS/Mol_Feturizer/New_Systems/rnas/1uts

>  <Rbt.Executable>
rbdock ($Id: //depot/dev/client3/rdock/2013.1/src/exe/rbdock.cxx#4 $)

>  <Rbt.Library>
libRbt.so (2013.1, Build901 2013/11/27)

>  <Rbt.Parameter_File>
/export/apps/rDock/src/rDock_2013.1_src/data/scripts/dock_solv.prm

>  <Rbt.Receptor>
prm/pocket_docking_8.prm

>  <SCORE>
-42.1714

>  <SCORE.INTER>
-41.2244

>  <SCORE.INTER.CONST>
1

>  <SCORE.INTER.POLAR>
-1.60579

>  <SCORE.INTER.ROT>
10

>  <SCORE.INTER.SOLV>
11.6162

>  <SCORE.INTER.VDW>
-36.269

>  <SCORE.INTER.norm>
-1.37415

>  <SCORE.INTRA>
-0.947085

>  <SCORE.INTRA.DIHEDRAL>
-3.28365

>  <SCORE.INTRA.DIHEDRAL.0>
18.0451

>  <SCORE.INTRA.POLAR>
-0.182487

>  <SCORE.INTRA.POLAR.0>
-0.196815

>  <SCORE.INTRA.REPUL>
0

>  <SCORE.INTRA.REPUL.0>
0

>  <SCORE.INTRA.SOLV>
0.0935717

>  <SCORE.INTRA.SOLV.lig_0>
-14.7906

>  <SCORE.INTRA.VDW>
1.26841

>  <SCORE.INTRA.VDW.0>
-0.411701

>  <SCORE.INTRA.norm>
-0.0315695

>  <SCORE.RESTR>
0

>  <SCORE.RESTR.CAVITY>
0

>  <SCORE.RESTR.norm>
0

>  <SCORE.SYSTEM>
0

>  <SCORE.SYSTEM.CONST>
0

>  <SCORE.SYSTEM.DIHEDRAL>
0

>  <SCORE.SYSTEM.SOLV>
0

>  <SCORE.SYSTEM.norm>
0

>  <SCORE.heavy>
30

>  <SCORE.norm>
-1.40571

>  <RMSD>
8.424

$$$$
1uts_lig
 OpenBabel11021811413D
libRbt.so/2013.1/901 2013/11/27
 30 33  0  0  0  0  0  0  0  0999 V2000
   -3.3854    4.6590   16.9479 N   0  0  0  0  0  0  0  0  0  0  0  0
   -1.2774    4.6723   15.6856 C   0  0  0  0  0  0  0  0  0  0  0  0
   -0.0576    2.5644   19.0404 C   0  0  0  0  0  0  0  0  0  0  0  0
    0.0137    3.8922   15.4216 C   0  0  0  0  0  0  0  0  0  0  0  0
    0.8431    3.9340   16.5921 O   0  0  0  0  0  0  0  0  0  0  0  0
   -2.1862    3.8597   16.6097 C   0  0  0  0  0  0  0  0  0  0  0  0
    0.3045    3.9734   19.3159 N   0  0  0  0  0  0  0  0  0  0  0  0
    1.6293    4.0277   19.9889 C   0  0  0  0  0  0  0  0  0  0  0  0
    2.2656    5.4034   19.7694 C   0  0  0  0  0  0  0  0  0  0  0  0
    3.7386    5.2837   19.8520 N   0  0  0  0  0  0  0  0  0  0  0  0
    4.3188    6.6020   20.2383 C   0  0  0  0  0  0  0  0  0  0  0  0
    4.2737    4.8468   18.5315 C   0  0  0  0  0  0  0  0  0  0  0  0
    5.8492    6.4825   20.3214 C   0  0  0  0  0  0  0  0  0  0  0  0
    5.8065    4.7303   18.6124 C   0  0  0  0  0  0  0  0  0  0  0  0
    6.3851    6.0467   19.0006 N   0  0  0  0  0  0  0  0  0  0  0  0
    2.8182    0.7347   16.2842 C   0  0  0  0  0  0  0  0  0  0  0  0
    4.8066   -4.9103   18.6169 N   0  0  0  0  0  0  0  0  0  0  0  0
    2.4247    0.0509   17.4593 C   0  0  0  0  0  0  0  0  0  0  0  0
    1.4928    0.6497   18.3484 C   0  0  0  0  0  0  0  0  0  0  0  0
    0.9514    1.9326   18.0603 C   0  0  0  0  0  0  0  0  0  0  0  0
    1.3620    2.6275   16.8831 C   0  0  0  0  0  0  0  0  0  0  0  0
    2.2928    2.0218   15.9952 C   0  0  0  0  0  0  0  0  0  0  0  0
    6.1489   -4.4679   18.6007 C   0  0  0  0  0  0  0  0  0  0  0  0
    6.2230   -3.0899   18.2956 C   0  0  0  0  0  0  0  0  0  0  0  0
    4.3723   -1.3806   17.8296 C   0  0  0  0  0  0  0  0  0  0  0  0
    2.9638   -1.2131   17.7373 C   0  0  0  0  0  0  0  0  0  0  0  0
    2.1030   -2.3277   17.9344 C   0  0  0  0  0  0  0  0  0  0  0  0
    2.6504   -3.6065   18.2253 C   0  0  0  0  0  0  0  0  0  0  0  0
    4.0672   -3.7689   18.3312 C   0  0  0  0  0  0  0  0  0  0  0  0
    4.9205   -2.6674   18.1360 C   0  0  0  0  0  0  0  0  0  0  0  0
  1  6  1  0  0  0  0
  2  4  1  0  0  0  0
  3  7  1  0  0  0  0
  4  5  1  0  0  0  0
  6  2  1  0  0  0  0
  7  8  1  0  0  0  0
  8  9  1  0  0  0  0
  9 10  1  0  0  0  0
 10 11  1  0  0  0  0
 10 12  1  0  0  0  0
 11 13  1  0  0  0  0
 13 15  1  0  0  0  0
 14 12  1  0  0  0  0
 15 14  1  0  0  0  0
 16 18  2  0  0  0  0
 16 22  1  0  0  0  0
 17 23  1  0  0  0  0
 17 29  1  0  0  0  0
 18 19  1  0  0  0  0
 18 26  1  0  0  0  0
 19 20  2  0  0  0  0
 20  3  1  0  0  0  0
 20 21  1  0  0  0  0
 21  5  1  0  0  0  0
 21 22  2  0  0  0  0
 23 24  2  0  0  0  0
 24 30  1  0  0  0  0
 25 26  2  0  0  0  0
 25 30  1  0  0  0  0
 26 27  1  0  0  0  0
 27 28  2  0  0  0  0
 28 29  1  0  0  0  0
 29 30  2  0  0  0  0
M  END
>  <CHROM.1>
177.50722033,-74.01224111,-63.22243183,134.32622706,175.63424393,157.02554145
-153.82645019,-155.30664675,56.89466702,132.98730778,-113.02645843,2.54200085
1.90381598,18.10695828,1.95113570,-0.35365044,0.13785583

>  <Name>
1uts_lig

>  <RI>
0

>  <Rbt.Current_Directory>
/home/itssahil/PROJECTS/Mol_Feturizer/New_Systems/rnas/1uts

>  <Rbt.Executable>
rbdock ($Id: //depot/dev/client3/rdock/2013.1/src/exe/rbdock.cxx#4 $)

>  <Rbt.Library>
libRbt.so (2013.1, Build901 2013/11/27)

>  <Rbt.Parameter_File>
/export/apps/rDock/src/rDock_2013.1_src/data/scripts/dock_solv.prm

>  <Rbt.Receptor>
prm/pocket_docking_3.prm

>  <SCORE>
-10.5736

>  <SCORE.INTER>
-8.35877

>  <SCORE.INTER.CONST>
1

>  <SCORE.INTER.POLAR>
-0.632456

>  <SCORE.INTER.ROT>
10

>  <SCORE.INTER.SOLV>
3.14104

>  <SCORE.INTER.VDW>
-14.778

>  <SCORE.INTER.norm>
-0.278626

>  <SCORE.INTRA>
-2.22652

>  <SCORE.INTRA.DIHEDRAL>
1.77136

>  <SCORE.INTRA.DIHEDRAL.0>
18.0451

>  <SCORE.INTRA.POLAR>
-0.440285

>  <SCORE.INTRA.POLAR.0>
-0.196815

>  <SCORE.INTRA.REPUL>
0

>  <SCORE.INTRA.REPUL.0>
0

>  <SCORE.INTRA.SOLV>
-0.10049

>  <SCORE.INTRA.SOLV.lig_0>
-14.7906

>  <SCORE.INTRA.VDW>
-1.56499

>  <SCORE.INTRA.VDW.0>
-0.411701

>  <SCORE.INTRA.norm>
-0.0742174

>  <SCORE.RESTR>
0.011738

>  <SCORE.RESTR.CAVITY>
0.011738

>  <SCORE.RESTR.norm>
0.000391267

>  <SCORE.SYSTEM>
0

>  <SCORE.SYSTEM.CONST>
0

>  <SCORE.SYSTEM.DIHEDRAL>
0

>  <SCORE.SYSTEM.SOLV>
0

>  <SCORE.SYSTEM.norm>
0

>  <SCORE.heavy>
30

>  <SCORE.norm>
-0.352452

>  <RMSD>
8.427

$$$$
1uts_lig
 OpenBabel11021811413D
libRbt.so/2013.1/901 2013/11/27
 30 33  0  0  0  0  0  0  0  0999 V2000
    6.7695    6.1620   16.1414 N   0  0  0  0  0  0  0  0  0  0  0  0
    4.6493    5.0865   16.7621 C   0  0  0  0  0  0  0  0  0  0  0  0
   -0.2189    4.0005   15.3852 C   0  0  0  0  0  0  0  0  0  0  0  0
    4.0250    5.0023   15.3662 C   0  0  0  0  0  0  0  0  0  0  0  0
    2.6048    4.8354   15.4890 O   0  0  0  0  0  0  0  0  0  0  0  0
    6.1654    4.9122   16.6558 C   0  0  0  0  0  0  0  0  0  0  0  0
   -1.3850    3.2802   14.8255 N   0  0  0  0  0  0  0  0  0  0  0  0
   -1.3090    3.2812   13.3406 C   0  0  0  0  0  0  0  0  0  0  0  0
   -2.3850    4.2082   12.7676 C   0  0  0  0  0  0  0  0  0  0  0  0
   -2.4810    4.0063   11.3044 N   0  0  0  0  0  0  0  0  0  0  0  0
   -1.3440    4.7021   10.6358 C   0  0  0  0  0  0  0  0  0  0  0  0
   -3.7811    4.5461   10.8153 C   0  0  0  0  0  0  0  0  0  0  0  0
   -1.4425    4.4977    9.1153 C   0  0  0  0  0  0  0  0  0  0  0  0
   -3.8792    4.3454    9.2922 C   0  0  0  0  0  0  0  0  0  0  0  0
   -2.7421    5.0385    8.6253 N   0  0  0  0  0  0  0  0  0  0  0  0
    3.0074    1.1638   16.2565 C   0  0  0  0  0  0  0  0  0  0  0  0
    0.3421   -4.6753   17.0784 N   0  0  0  0  0  0  0  0  0  0  0  0
    1.6617    0.7258   16.2336 C   0  0  0  0  0  0  0  0  0  0  0  0
    0.6210    1.6503   15.9510 C   0  0  0  0  0  0  0  0  0  0  0  0
    0.9269    3.0138   15.6880 C   0  0  0  0  0  0  0  0  0  0  0  0
    2.2832    3.4567   15.7277 C   0  0  0  0  0  0  0  0  0  0  0  0
    3.3210    2.5261   16.0080 C   0  0  0  0  0  0  0  0  0  0  0  0
   -0.6967   -4.7531   16.1231 C   0  0  0  0  0  0  0  0  0  0  0  0
   -0.8928   -3.5061   15.4874 C   0  0  0  0  0  0  0  0  0  0  0  0
    0.3220   -1.2702   15.7853 C   0  0  0  0  0  0  0  0  0  0  0  0
    1.3677   -0.6198   16.4953 C   0  0  0  0  0  0  0  0  0  0  0  0
    2.1190   -1.3380   17.4659 C   0  0  0  0  0  0  0  0  0  0  0  0
    1.8260   -2.7045   17.7236 C   0  0  0  0  0  0  0  0  0  0  0  0
    0.7827   -3.3598   16.9978 C   0  0  0  0  0  0  0  0  0  0  0  0
    0.0379   -2.6507   16.0376 C   0  0  0  0  0  0  0  0  0  0  0  0
  1  6  1  0  0  0  0
  2  4  1  0  0  0  0
  3  7  1  0  0  0  0
  4  5  1  0  0  0  0
  6  2  1  0  0  0  0
  7  8  1  0  0  0  0
  8  9  1  0  0  0  0
  9 10  1  0  0  0  0
 10 11  1  0  0  0  0
 10 12  1  0  0  0  0
 11 13  1  0  0  0  0
 13 15  1  0  0  0  0
 14 12  1  0  0  0  0
 15 14  1  0  0  0  0
 16 18  2  0  0  0  0
 16 22  1  0  0  0  0
 17 23  1  0  0  0  0
 17 29  1  0  0  0  0
 18 19  1  0  0  0  0
 18 26  1  0  0  0  0
 19 20  2  0  0  0  0
 20  3  1  0  0  0  0
 20 21  1  0  0  0  0
 21  5  1  0  0  0  0
 21 22  2  0  0  0  0
 23 24  2  0  0  0  0
 24 30  1  0  0  0  0
 25 26  2  0  0  0  0
 25 30  1  0  0  0  0
 26 27  1  0  0  0  0
 27 28  2  0  0  0  0
 28 29  1  0  0  0  0
 29 30  2  0  0  0  0
M  END
>  <CHROM.1>
-179.62326479,165.94105538,-92.68012322,-82.02453864,75.99223938,-108.86161945
-169.04620237,-77.31756148,-143.09928005,-25.64537706,-170.71260553,0.66914803
2.01665014,14.62610951,-1.08457869,-0.62538080,-0.45915984

>  <Name>
1uts_lig

>  <RI>
0

>  <Rbt.Current_Directory>
/home/itssahil/PROJECTS/Mol_Feturizer/New_Systems/rnas/1uts

>  <Rbt.Executable>
rbdock ($Id: //depot/dev/client3/rdock/2013.1/src/exe/rbdock.cxx#4 $)

>  <Rbt.Library>
libRbt.so (2013.1, Build901 2013/11/27)

>  <Rbt.Parameter_File>
/export/apps/rDock/src/rDock_2013.1_src/data/scripts/dock_solv.prm

>  <Rbt.Receptor>
prm/pocket_docking_6.prm

>  <SCORE>
-27.7946

>  <SCORE.INTER>
-32.9671

>  <SCORE.INTER.CONST>
1

>  <SCORE.INTER.POLAR>
-1.36338

>  <SCORE.INTER.ROT>
10

>  <SCORE.INTER.SOLV>
10.4074

>  <SCORE.INTER.VDW>
-31.1693

>  <SCORE.INTER.norm>
-1.0989

>  <SCORE.INTRA>
5.09974

>  <SCORE.INTRA.DIHEDRAL>
-5.15486

>  <SCORE.INTRA.DIHEDRAL.0>
18.0451

>  <SCORE.INTRA.POLAR>
0.196815

>  <SCORE.INTRA.POLAR.0>
-0.196815

>  <SCORE.INTRA.REPUL>
0

>  <SCORE.INTRA.REPUL.0>
0

>  <SCORE.INTRA.SOLV>
-0.578622

>  <SCORE.INTRA.SOLV.lig_0>
-14.7906

>  <SCORE.INTRA.VDW>
7.2973

>  <SCORE.INTRA.VDW.0>
-0.411701

>  <SCORE.INTRA.norm>
0.169991

>  <SCORE.RESTR>
0.0727666

>  <SCORE.RESTR.CAVITY>
0.0727666

>  <SCORE.RESTR.norm>
0.00242555

>  <SCORE.SYSTEM>
0

>  <SCORE.SYSTEM.CONST>
0

>  <SCORE.SYSTEM.DIHEDRAL>
0

>  <SCORE.SYSTEM.SOLV>
0

>  <SCORE.SYSTEM.norm>
0

>  <SCORE.heavy>
30

>  <SCORE.norm>
-0.926486

>  <RMSD>
8.427

$$$$
1uts_lig
 OpenBabel11021811413D
libRbt.so/2013.1/901 2013/11/27
 30 33  0  0  0  0  0  0  0  0999 V2000
    3.5720    7.3839   19.6869 N   0  0  0  0  0  0  0  0  0  0  0  0
    1.2558    7.2236   18.8827 C   0  0  0  0  0  0  0  0  0  0  0  0
   -0.1106    3.8803   15.1342 C   0  0  0  0  0  0  0  0  0  0  0  0
    1.3499    5.6959   18.8323 C   0  0  0  0  0  0  0  0  0  0  0  0
    0.8105    5.2265   17.5879 O   0  0  0  0  0  0  0  0  0  0  0  0
    2.1709    7.7564   19.9867 C   0  0  0  0  0  0  0  0  0  0  0  0
   -1.2834    4.6437   15.6178 N   0  0  0  0  0  0  0  0  0  0  0  0
   -2.3883    3.7062   15.9515 C   0  0  0  0  0  0  0  0  0  0  0  0
   -3.5586    4.4819   16.5633 C   0  0  0  0  0  0  0  0  0  0  0  0
   -4.8246    3.7705   16.2767 N   0  0  0  0  0  0  0  0  0  0  0  0
   -5.0916    3.8121   14.8102 C   0  0  0  0  0  0  0  0  0  0  0  0
   -5.9369    4.4197   17.0265 C   0  0  0  0  0  0  0  0  0  0  0  0
   -6.4079    3.0774   14.5091 C   0  0  0  0  0  0  0  0  0  0  0  0
   -7.2562    3.6872   16.7229 C   0  0  0  0  0  0  0  0  0  0  0  0
   -7.5210    3.7271   15.2577 N   0  0  0  0  0  0  0  0  0  0  0  0
    1.7608    1.6734   18.4269 C   0  0  0  0  0  0  0  0  0  0  0  0
    2.0858   -4.5831   17.1528 N   0  0  0  0  0  0  0  0  0  0  0  0
    1.3155    0.9865   17.2722 C   0  0  0  0  0  0  0  0  0  0  0  0
    0.7095    1.7077   16.2091 C   0  0  0  0  0  0  0  0  0  0  0  0
    0.5515    3.1179   16.2996 C   0  0  0  0  0  0  0  0  0  0  0  0
    0.9864    3.8064   17.4718 C   0  0  0  0  0  0  0  0  0  0  0  0
    1.5951    3.0797   18.5314 C   0  0  0  0  0  0  0  0  0  0  0  0
    3.1009   -4.6404   18.1347 C   0  0  0  0  0  0  0  0  0  0  0  0
    3.4165   -3.3477   18.6111 C   0  0  0  0  0  0  0  0  0  0  0  0
    2.4395   -1.0588   18.0024 C   0  0  0  0  0  0  0  0  0  0  0  0
    1.4734   -0.4042   17.1908 C   0  0  0  0  0  0  0  0  0  0  0  0
    0.6632   -1.1629   16.3019 C   0  0  0  0  0  0  0  0  0  0  0  0
    0.8179   -2.5736   16.2270 C   0  0  0  0  0  0  0  0  0  0  0  0
    1.7810   -3.2308   17.0550 C   0  0  0  0  0  0  0  0  0  0  0  0
    2.5839   -2.4818   17.9346 C   0  0  0  0  0  0  0  0  0  0  0  0
  1  6  1  0  0  0  0
  2  4  1  0  0  0  0
  3  7  1  0  0  0  0
  4  5  1  0  0  0  0
  6  2  1  0  0  0  0
  7  8  1  0  0  0  0
  8  9  1  0  0  0  0
  9 10  1  0  0  0  0
 10 11  1  0  0  0  0
 10 12  1  0  0  0  0
 11 13  1  0  0  0  0
 13 15  1  0  0  0  0
 14 12  1  0  0  0  0
 15 14  1  0  0  0  0
 16 18  2  0  0  0  0
 16 22  1  0  0  0  0
 17 23  1  0  0  0  0
 17 29  1  0  0  0  0
 18 19  1  0  0  0  0
 18 26  1  0  0  0  0
 19 20  2  0  0  0  0
 20  3  1  0  0  0  0
 20 21  1  0  0  0  0
 21  5  1  0  0  0  0
 21 22  2  0  0  0  0
 23 24  2  0  0  0  0
 24 30  1  0  0  0  0
 25 26  2  0  0  0  0
 25 30  1  0  0  0  0
 26 27  1  0  0  0  0
 27 28  2  0  0  0  0
 28 29  1  0  0  0  0
 29 30  2  0  0  0  0
M  END
>  <CHROM.1>
-179.40895353,-163.74907801,-71.53490573,175.35249891,61.29153642,175.21642992
151.86138847,-66.71872954,-21.06414465,123.37534264,-178.65297145,-0.43700661
2.28349397,17.11206933,-2.39273865,0.34477458,-2.98475809

>  <Name>
1uts_lig

>  <RI>
0

>  <Rbt.Current_Directory>
/home/itssahil/PROJECTS/Mol_Feturizer/New_Systems/rnas/1uts

>  <Rbt.Executable>
rbdock ($Id: //depot/dev/client3/rdock/2013.1/src/exe/rbdock.cxx#4 $)

>  <Rbt.Library>
libRbt.so (2013.1, Build901 2013/11/27)

>  <Rbt.Parameter_File>
/export/apps/rDock/src/rDock_2013.1_src/data/scripts/dock_solv.prm

>  <Rbt.Receptor>
prm/pocket_docking_4.prm

>  <SCORE>
-29.3753

>  <SCORE.INTER>
-27.3657

>  <SCORE.INTER.CONST>
1

>  <SCORE.INTER.POLAR>
-2.27949

>  <SCORE.INTER.ROT>
10

>  <SCORE.INTER.SOLV>
9.7016

>  <SCORE.INTER.VDW>
-24.1461

>  <SCORE.INTER.norm>
-0.912191

>  <SCORE.INTRA>
-2.23751

>  <SCORE.INTRA.DIHEDRAL>
-12.6506

>  <SCORE.INTRA.DIHEDRAL.0>
18.0451

>  <SCORE.INTRA.POLAR>
-0.422876

>  <SCORE.INTRA.POLAR.0>
-0.196815

>  <SCORE.INTRA.REPUL>
0

>  <SCORE.INTRA.REPUL.0>
0

>  <SCORE.INTRA.SOLV>
-0.233176

>  <SCORE.INTRA.SOLV.lig_0>
-14.7906

>  <SCORE.INTRA.VDW>
5.64214

>  <SCORE.INTRA.VDW.0>
-0.411701

>  <SCORE.INTRA.norm>
-0.0745837

>  <SCORE.RESTR>
0.227958

>  <SCORE.RESTR.CAVITY>
0.227958

>  <SCORE.RESTR.norm>
0.00759859

>  <SCORE.SYSTEM>
0

>  <SCORE.SYSTEM.CONST>
0

>  <SCORE.SYSTEM.DIHEDRAL>
0

>  <SCORE.SYSTEM.SOLV>
0

>  <SCORE.SYSTEM.norm>
0

>  <SCORE.heavy>
30

>  <SCORE.norm>
-0.979176

>  <RMSD>
8.448

$$$$
1uts_lig
 OpenBabel11021811413D
libRbt.so/2013.1/901 2013/11/27
 30 33  0  0  0  0  0  0  0  0999 V2000
   -2.0640    5.3464   12.5899 N   0  0  0  0  0  0  0  0  0  0  0  0
   -1.6677    4.3186   14.7862 C   0  0  0  0  0  0  0  0  0  0  0  0
    2.6450    4.0876   15.9710 C   0  0  0  0  0  0  0  0  0  0  0  0
   -1.0433    3.0846   15.4438 C   0  0  0  0  0  0  0  0  0  0  0  0
    0.2344    2.8213   14.8454 O   0  0  0  0  0  0  0  0  0  0  0  0
   -1.8621    4.0585   13.2913 C   0  0  0  0  0  0  0  0  0  0  0  0
    3.4883    4.6484   17.0509 N   0  0  0  0  0  0  0  0  0  0  0  0
    2.6233    5.1742   18.1401 C   0  0  0  0  0  0  0  0  0  0  0  0
    2.2743    4.0455   19.1147 C   0  0  0  0  0  0  0  0  0  0  0  0
    3.1898    4.0972   20.2766 N   0  0  0  0  0  0  0  0  0  0  0  0
    3.1405    5.4592   20.8820 C   0  0  0  0  0  0  0  0  0  0  0  0
    4.5747    3.7768   19.8291 C   0  0  0  0  0  0  0  0  0  0  0  0
    4.0932    5.5179   22.0870 C   0  0  0  0  0  0  0  0  0  0  0  0
    5.5303    3.8390   21.0343 C   0  0  0  0  0  0  0  0  0  0  0  0
    5.4787    5.1988   21.6399 N   0  0  0  0  0  0  0  0  0  0  0  0
    1.5209   -0.0354   16.9468 C   0  0  0  0  0  0  0  0  0  0  0  0
    5.9264   -2.7313   20.7445 N   0  0  0  0  0  0  0  0  0  0  0  0
    2.6970    0.5302   17.4947 C   0  0  0  0  0  0  0  0  0  0  0  0
    3.0556    1.8666   17.1740 C   0  0  0  0  0  0  0  0  0  0  0  0
    2.2355    2.6393   16.3068 C   0  0  0  0  0  0  0  0  0  0  0  0
    1.0586    2.0617   15.7424 C   0  0  0  0  0  0  0  0  0  0  0  0
    0.7029    0.7244   16.0695 C   0  0  0  0  0  0  0  0  0  0  0  0
    5.7857   -3.9204   19.9935 C   0  0  0  0  0  0  0  0  0  0  0  0
    4.9361   -3.7186   18.8822 C   0  0  0  0  0  0  0  0  0  0  0  0
    3.7172   -1.6159   18.0718 C   0  0  0  0  0  0  0  0  0  0  0  0
    3.5014   -0.2383   18.3479 C   0  0  0  0  0  0  0  0  0  0  0  0
    4.1083    0.3601   19.4862 C   0  0  0  0  0  0  0  0  0  0  0  0
    4.9310   -0.4178   20.3451 C   0  0  0  0  0  0  0  0  0  0  0  0
    5.1574   -1.8001   20.0570 C   0  0  0  0  0  0  0  0  0  0  0  0
    4.5574   -2.3940   18.9315 C   0  0  0  0  0  0  0  0  0  0  0  0
  1  6  1  0  0  0  0
  2  4  1  0  0  0  0
  3  7  1  0  0  0  0
  4  5  1  0  0  0  0
  6  2  1  0  0  0  0
  7  8  1  0  0  0  0
  8  9  1  0  0  0  0
  9 10  1  0  0  0  0
 10 11  1  0  0  0  0
 10 12  1  0  0  0  0
 11 13  1  0  0  0  0
 13 15  1  0  0  0  0
 14 12  1  0  0  0  0
 15 14  1  0  0  0  0
 16 18  2  0  0  0  0
 16 22  1  0  0  0  0
 17 23  1  0  0  0  0
 17 29  1  0  0  0  0
 18 19  1  0  0  0  0
 18 26  1  0  0  0  0
 19 20  2  0  0  0  0
 20  3  1  0  0  0  0
 20 21  1  0  0  0  0
 21  5  1  0  0  0  0
 21 22  2  0  0  0  0
 23 24  2  0  0  0  0
 24 30  1  0  0  0  0
 25 26  2  0  0  0  0
 25 30  1  0  0  0  0
 26 27  1  0  0  0  0
 27 28  2  0  0  0  0
 28 29  1  0  0  0  0
 29 30  2  0  0  0  0
M  END
>  <CHROM.1>
-177.89335964,60.59930300,-83.54539011,156.87783808,-162.77582763,86.20100704
97.44605902,54.48636209,39.28025282,-25.39672987,-113.23175088,2.77297275
2.05408585,18.02520525,2.75091388,-0.85960752,0.25375017

>  <Name>
1uts_lig

>  <RI>
0

>  <Rbt.Current_Directory>
/home/itssahil/PROJECTS/Mol_Feturizer/New_Systems/rnas/1uts

>  <Rbt.Executable>
rbdock ($Id: //depot/dev/client3/rdock/2013.1/src/exe/rbdock.cxx#4 $)

>  <Rbt.Library>
libRbt.so (2013.1, Build901 2013/11/27)

>  <Rbt.Parameter_File>
/export/apps/rDock/src/rDock_2013.1_src/data/scripts/dock_solv.prm

>  <Rbt.Receptor>
prm/pocket_docking_2.prm

>  <SCORE>
-9.29145

>  <SCORE.INTER>
-15.7018

>  <SCORE.INTER.CONST>
1

>  <SCORE.INTER.POLAR>
-2.01076

>  <SCORE.INTER.ROT>
10

>  <SCORE.INTER.SOLV>
4.85066

>  <SCORE.INTER.VDW>
-15.6489

>  <SCORE.INTER.norm>
-0.523394

>  <SCORE.INTRA>
4.79913

>  <SCORE.INTRA.DIHEDRAL>
-1.37389

>  <SCORE.INTRA.DIHEDRAL.0>
18.0451

>  <SCORE.INTRA.POLAR>
0.196815

>  <SCORE.INTRA.POLAR.0>
-0.196815

>  <SCORE.INTRA.REPUL>
0

>  <SCORE.INTRA.REPUL.0>
0

>  <SCORE.INTRA.SOLV>
-0.206919

>  <SCORE.INTRA.SOLV.lig_0>
-14.7906

>  <SCORE.INTRA.VDW>
4.92036

>  <SCORE.INTRA.VDW.0>
-0.411701

>  <SCORE.INTRA.norm>
0.159971

>  <SCORE.RESTR>
1.61125

>  <SCORE.RESTR.CAVITY>
1.61125

>  <SCORE.RESTR.norm>
0.0537083

>  <SCORE.SYSTEM>
0

>  <SCORE.SYSTEM.CONST>
0

>  <SCORE.SYSTEM.DIHEDRAL>
0

>  <SCORE.SYSTEM.SOLV>
0

>  <SCORE.SYSTEM.norm>
0

>  <SCORE.heavy>
30

>  <SCORE.norm>
-0.309715

>  <RMSD>
8.453

$$$$
1uts_lig
 OpenBabel11021811413D
libRbt.so/2013.1/901 2013/11/27
 30 33  0  0  0  0  0  0  0  0999 V2000
   -1.6241    2.5578   13.3669 N   0  0  0  0  0  0  0  0  0  0  0  0
   -2.0390    4.0595   15.2669 C   0  0  0  0  0  0  0  0  0  0  0  0
    2.3568    3.5816   16.1577 C   0  0  0  0  0  0  0  0  0  0  0  0
   -1.3388    4.8448   16.3797 C   0  0  0  0  0  0  0  0  0  0  0  0
   -0.4179    3.9826   17.0640 O   0  0  0  0  0  0  0  0  0  0  0  0
   -0.9994    3.5561   14.2640 C   0  0  0  0  0  0  0  0  0  0  0  0
    1.4343    2.4238   16.1797 N   0  0  0  0  0  0  0  0  0  0  0  0
    2.0109    1.3399   17.0186 C   0  0  0  0  0  0  0  0  0  0  0  0
    1.8324   -0.0092   16.3160 C   0  0  0  0  0  0  0  0  0  0  0  0
    0.4467   -0.4894   16.5164 N   0  0  0  0  0  0  0  0  0  0  0  0
    0.3578   -1.9209   16.1081 C   0  0  0  0  0  0  0  0  0  0  0  0
   -0.4866    0.3419   15.7047 C   0  0  0  0  0  0  0  0  0  0  0  0
   -1.0812   -2.4222   16.3112 C   0  0  0  0  0  0  0  0  0  0  0  0
   -1.9275   -0.1615   15.9044 C   0  0  0  0  0  0  0  0  0  0  0  0
   -2.0150   -1.5919   15.4986 N   0  0  0  0  0  0  0  0  0  0  0  0
    1.3403    6.4448   19.3174 C   0  0  0  0  0  0  0  0  0  0  0  0
    6.8904    9.0738   21.3935 N   0  0  0  0  0  0  0  0  0  0  0  0
    2.6883    6.2689   18.9232 C   0  0  0  0  0  0  0  0  0  0  0  0
    3.0108    5.3391   17.8990 C   0  0  0  0  0  0  0  0  0  0  0  0
    1.9836    4.5867   17.2661 C   0  0  0  0  0  0  0  0  0  0  0  0
    0.6268    4.7537   17.6764 C   0  0  0  0  0  0  0  0  0  0  0  0
    0.3096    5.6881   18.7000 C   0  0  0  0  0  0  0  0  0  0  0  0
    7.8259    8.0143   21.4033 C   0  0  0  0  0  0  0  0  0  0  0  0
    7.2674    6.8420   20.8453 C   0  0  0  0  0  0  0  0  0  0  0  0
    4.9472    6.4079   19.8493 C   0  0  0  0  0  0  0  0  0  0  0  0
    3.6957    7.0133   19.5528 C   0  0  0  0  0  0  0  0  0  0  0  0
    3.4703    8.3764   19.8895 C   0  0  0  0  0  0  0  0  0  0  0  0
    4.4956    9.1325   20.5193 C   0  0  0  0  0  0  0  0  0  0  0  0
    5.7583    8.5245   20.8037 C   0  0  0  0  0  0  0  0  0  0  0  0
    5.9830    7.1759   20.4718 C   0  0  0  0  0  0  0  0  0  0  0  0
  1  6  1  0  0  0  0
  2  4  1  0  0  0  0
  3  7  1  0  0  0  0
  4  5  1  0  0  0  0
  6  2  1  0  0  0  0
  7  8  1  0  0  0  0
  8  9  1  0  0  0  0
  9 10  1  0  0  0  0
 10 11  1  0  0  0  0
 10 12  1  0  0  0  0
 11 13  1  0  0  0  0
 13 15  1  0  0  0  0
 14 12  1  0  0  0  0
 15 14  1  0  0  0  0
 16 18  2  0  0  0  0
 16 22  1  0  0  0  0
 17 23  1  0  0  0  0
 17 29  1  0  0  0  0
 18 19  1  0  0  0  0
 18 26  1  0  0  0  0
 19 20  2  0  0  0  0
 20  3  1  0  0  0  0
 20 21  1  0  0  0  0
 21  5  1  0  0  0  0
 21 22  2  0  0  0  0
 23 24  2  0  0  0  0
 24 30  1  0  0  0  0
 25 26  2  0  0  0  0
 25 30  1  0  0  0  0
 26 27  1  0  0  0  0
 27 28  2  0  0  0  0
 28 29  1  0  0  0  0
 29 30  2  0  0  0  0
M  END
>  <CHROM.1>
-165.34810049,-60.91802072,-92.99400201,155.17622099,167.53774244,-136.31460870
-79.43828457,-167.28062809,141.14619519,147.17727103,-117.01028066,1.74948075
3.95337764,17.62214704,2.29955701,0.53535687,-2.99382389

>  <Name>
1uts_lig

>  <RI>
0

>  <Rbt.Current_Directory>
/home/itssahil/PROJECTS/Mol_Feturizer/New_Systems/rnas/1uts

>  <Rbt.Executable>
rbdock ($Id: //depot/dev/client3/rdock/2013.1/src/exe/rbdock.cxx#4 $)

>  <Rbt.Library>
libRbt.so (2013.1, Build901 2013/11/27)

>  <Rbt.Parameter_File>
/export/apps/rDock/src/rDock_2013.1_src/data/scripts/dock_solv.prm

>  <Rbt.Receptor>
prm/pocket_docking_6.prm

>  <SCORE>
-28.0433

>  <SCORE.INTER>
-25.9169

>  <SCORE.INTER.CONST>
1

>  <SCORE.INTER.POLAR>
-2.11117

>  <SCORE.INTER.ROT>
10

>  <SCORE.INTER.SOLV>
5.92713

>  <SCORE.INTER.VDW>
-22.4831

>  <SCORE.INTER.norm>
-0.863895

>  <SCORE.INTRA>
-2.12643

>  <SCORE.INTRA.DIHEDRAL>
-1.17981

>  <SCORE.INTRA.DIHEDRAL.0>
18.0451

>  <SCORE.INTRA.POLAR>
-0.732085

>  <SCORE.INTRA.POLAR.0>
-0.196815

>  <SCORE.INTRA.REPUL>
0

>  <SCORE.INTRA.REPUL.0>
0

>  <SCORE.INTRA.SOLV>
0.536998

>  <SCORE.INTRA.SOLV.lig_0>
-14.7906

>  <SCORE.INTRA.VDW>
0.684064

>  <SCORE.INTRA.VDW.0>
-0.411701

>  <SCORE.INTRA.norm>
-0.070881

>  <SCORE.RESTR>
0

>  <SCORE.RESTR.CAVITY>
0

>  <SCORE.RESTR.norm>
0

>  <SCORE.SYSTEM>
0

>  <SCORE.SYSTEM.CONST>
0

>  <SCORE.SYSTEM.DIHEDRAL>
0

>  <SCORE.SYSTEM.SOLV>
0

>  <SCORE.SYSTEM.norm>
0

>  <SCORE.heavy>
30

>  <SCORE.norm>
-0.934776

>  <RMSD>
8.458

$$$$
1uts_lig
 OpenBabel11021811413D
libRbt.so/2013.1/901 2013/11/27
 30 33  0  0  0  0  0  0  0  0999 V2000
    0.2560    4.5031   15.3061 N   0  0  0  0  0  0  0  0  0  0  0  0
   -1.4526    2.8655   14.6456 C   0  0  0  0  0  0  0  0  0  0  0  0
   -6.5565    3.1769   13.8967 C   0  0  0  0  0  0  0  0  0  0  0  0
   -2.8648    2.3572   14.9495 C   0  0  0  0  0  0  0  0  0  0  0  0
   -3.7909    3.4512   14.8752 O   0  0  0  0  0  0  0  0  0  0  0  0
   -1.0651    3.9392   15.6640 C   0  0  0  0  0  0  0  0  0  0  0  0
   -6.6385    4.0173   15.1129 N   0  0  0  0  0  0  0  0  0  0  0  0
   -7.3285    3.2664   16.1950 C   0  0  0  0  0  0  0  0  0  0  0  0
   -7.3828    4.1208   17.4649 C   0  0  0  0  0  0  0  0  0  0  0  0
   -6.0104    4.5218   17.8479 N   0  0  0  0  0  0  0  0  0  0  0  0
   -5.1732    3.3010   18.0286 C   0  0  0  0  0  0  0  0  0  0  0  0
   -6.0604    5.3099   19.1117 C   0  0  0  0  0  0  0  0  0  0  0  0
   -3.7478    3.7135   18.4303 C   0  0  0  0  0  0  0  0  0  0  0  0
   -4.6332    5.7203   19.5169 C   0  0  0  0  0  0  0  0  0  0  0  0
   -3.7970    4.5007   19.6949 N   0  0  0  0  0  0  0  0  0  0  0  0
   -3.2980    4.5230   11.2919 C   0  0  0  0  0  0  0  0  0  0  0  0
   -5.4100    5.4338    5.3108 N   0  0  0  0  0  0  0  0  0  0  0  0
   -4.6099    4.3872   10.7782 C   0  0  0  0  0  0  0  0  0  0  0  0
   -5.6610    3.9501   11.6276 C   0  0  0  0  0  0  0  0  0  0  0  0
   -5.4005    3.6515   12.9931 C   0  0  0  0  0  0  0  0  0  0  0  0
   -4.0737    3.7734   13.5050 C   0  0  0  0  0  0  0  0  0  0  0  0
   -3.0261    4.2144   12.6509 C   0  0  0  0  0  0  0  0  0  0  0  0
   -4.1658    4.9422    4.8547 C   0  0  0  0  0  0  0  0  0  0  0  0
   -3.3773    4.4836    5.9343 C   0  0  0  0  0  0  0  0  0  0  0  0
   -3.8744    4.3948    8.4461 C   0  0  0  0  0  0  0  0  0  0  0  0
   -4.8588    4.6822    9.4303 C   0  0  0  0  0  0  0  0  0  0  0  0
   -6.0985    5.2624    9.0447 C   0  0  0  0  0  0  0  0  0  0  0  0
   -6.3533    5.5523    7.6770 C   0  0  0  0  0  0  0  0  0  0  0  0
   -5.3663    5.2493    6.6875 C   0  0  0  0  0  0  0  0  0  0  0  0
   -4.1391    4.6758    7.0672 C   0  0  0  0  0  0  0  0  0  0  0  0
  1  6  1  0  0  0  0
  2  4  1  0  0  0  0
  3  7  1  0  0  0  0
  4  5  1  0  0  0  0
  6  2  1  0  0  0  0
  7  8  1  0  0  0  0
  8  9  1  0  0  0  0
  9 10  1  0  0  0  0
 10 11  1  0  0  0  0
 10 12  1  0  0  0  0
 11 13  1  0  0  0  0
 13 15  1  0  0  0  0
 14 12  1  0  0  0  0
 15 14  1  0  0  0  0
 16 18  2  0  0  0  0
 16 22  1  0  0  0  0
 17 23  1  0  0  0  0
 17 29  1  0  0  0  0
 18 19  1  0  0  0  0
 18 26  1  0  0  0  0
 19 20  2  0  0  0  0
 20  3  1  0  0  0  0
 20 21  1  0  0  0  0
 21  5  1  0  0  0  0
 21 22  2  0  0  0  0
 23 24  2  0  0  0  0
 24 30  1  0  0  0  0
 25 26  2  0  0  0  0
 25 30  1  0  0  0  0
 26 27  1  0  0  0  0
 27 28  2  0  0  0  0
 28 29  1  0  0  0  0
 29 30  2  0  0  0  0
M  END
>  <CHROM.1>
54.18516145,59.73911761,-156.98760919,77.09633303,-175.63464195,178.57166378
-56.39074539,-56.90859709,34.87158357,-126.74421737,117.80815286,-4.49673225
4.25926765,13.15929382,-1.55815969,0.09081735,-1.50503202

>  <Name>
1uts_lig

>  <RI>
0

>  <Rbt.Current_Directory>
/home/itssahil/PROJECTS/Mol_Feturizer/New_Systems/rnas/1uts

>  <Rbt.Executable>
rbdock ($Id: //depot/dev/client3/rdock/2013.1/src/exe/rbdock.cxx#4 $)

>  <Rbt.Library>
libRbt.so (2013.1, Build901 2013/11/27)

>  <Rbt.Parameter_File>
/export/apps/rDock/src/rDock_2013.1_src/data/scripts/dock_solv.prm

>  <Rbt.Receptor>
prm/pocket_docking_8.prm

>  <SCORE>
-36.8462

>  <SCORE.INTER>
-33.3827

>  <SCORE.INTER.CONST>
1

>  <SCORE.INTER.POLAR>
-2.36969

>  <SCORE.INTER.ROT>
10

>  <SCORE.INTER.SOLV>
12.1625

>  <SCORE.INTER.VDW>
-28.677

>  <SCORE.INTER.norm>
-1.11276

>  <SCORE.INTRA>
-3.46626

>  <SCORE.INTRA.DIHEDRAL>
-9.28372

>  <SCORE.INTRA.DIHEDRAL.0>
18.0451

>  <SCORE.INTRA.POLAR>
-0.417355

>  <SCORE.INTRA.POLAR.0>
-0.196815

>  <SCORE.INTRA.REPUL>
0

>  <SCORE.INTRA.REPUL.0>
0

>  <SCORE.INTRA.SOLV>
0.248255

>  <SCORE.INTRA.SOLV.lig_0>
-14.7906

>  <SCORE.INTRA.VDW>
2.47048

>  <SCORE.INTRA.VDW.0>
-0.411701

>  <SCORE.INTRA.norm>
-0.115542

>  <SCORE.RESTR>
0.00270134

>  <SCORE.RESTR.CAVITY>
0.00270134

>  <SCORE.RESTR.norm>
9.00446e-05

>  <SCORE.SYSTEM>
0

>  <SCORE.SYSTEM.CONST>
0

>  <SCORE.SYSTEM.DIHEDRAL>
0

>  <SCORE.SYSTEM.SOLV>
0

>  <SCORE.SYSTEM.norm>
0

>  <SCORE.heavy>
30

>  <SCORE.norm>
-1.22821

>  <RMSD>
8.465

$$$$
1uts_lig
 OpenBabel11021811413D
libRbt.so/2013.1/901 2013/11/27
 30 33  0  0  0  0  0  0  0  0999 V2000
   -2.7982    4.2280   15.6108 N   0  0  0  0  0  0  0  0  0  0  0  0
   -0.6883    3.6329   14.5010 C   0  0  0  0  0  0  0  0  0  0  0  0
    4.3603    3.6141   16.0035 C   0  0  0  0  0  0  0  0  0  0  0  0
    0.1057    4.2676   15.6464 C   0  0  0  0  0  0  0  0  0  0  0  0
    1.5092    4.0720   15.4184 O   0  0  0  0  0  0  0  0  0  0  0  0
   -2.0311    4.3501   14.3505 C   0  0  0  0  0  0  0  0  0  0  0  0
    3.9730    4.8433   16.7321 N   0  0  0  0  0  0  0  0  0  0  0  0
    4.2012    4.6548   18.1893 C   0  0  0  0  0  0  0  0  0  0  0  0
    3.6097    5.8365   18.9633 C   0  0  0  0  0  0  0  0  0  0  0  0
    2.2711    5.4684   19.4768 N   0  0  0  0  0  0  0  0  0  0  0  0
    1.2786    5.5492   18.3667 C   0  0  0  0  0  0  0  0  0  0  0  0
    1.8933    6.3955   20.5808 C   0  0  0  0  0  0  0  0  0  0  0  0
   -0.1138    5.1712   18.8973 C   0  0  0  0  0  0  0  0  0  0  0  0
    0.4974    6.0203   21.1104 C   0  0  0  0  0  0  0  0  0  0  0  0
   -0.4928    6.0989   20.0006 N   0  0  0  0  0  0  0  0  0  0  0  0
    1.3498    0.4733   16.5390 C   0  0  0  0  0  0  0  0  0  0  0  0
    4.4666   -4.8201   18.6242 N   0  0  0  0  0  0  0  0  0  0  0  0
    2.7124    0.2072   16.8143 C   0  0  0  0  0  0  0  0  0  0  0  0
    3.6828    1.2293   16.6382 C   0  0  0  0  0  0  0  0  0  0  0  0
    3.2896    2.5200   16.1892 C   0  0  0  0  0  0  0  0  0  0  0  0
    1.9173    2.7813   15.8966 C   0  0  0  0  0  0  0  0  0  0  0  0
    0.9499    1.7552   16.0776 C   0  0  0  0  0  0  0  0  0  0  0  0
    5.8503   -4.5318   18.6274 C   0  0  0  0  0  0  0  0  0  0  0  0
    6.0928   -3.2139   18.1782 C   0  0  0  0  0  0  0  0  0  0  0  0
    4.4683   -1.3769   17.4361 C   0  0  0  0  0  0  0  0  0  0  0  0
    3.0927   -1.0681   17.2552 C   0  0  0  0  0  0  0  0  0  0  0  0
    2.1034   -2.0523   17.5289 C   0  0  0  0  0  0  0  0  0  0  0  0
    2.4897   -3.3417   17.9847 C   0  0  0  0  0  0  0  0  0  0  0  0
    3.8737   -3.6448   18.1789 C   0  0  0  0  0  0  0  0  0  0  0  0
    4.8539   -2.6726   17.9081 C   0  0  0  0  0  0  0  0  0  0  0  0
  1  6  1  0  0  0  0
  2  4  1  0  0  0  0
  3  7  1  0  0  0  0
  4  5  1  0  0  0  0
  6  2  1  0  0  0  0
  7  8  1  0  0  0  0
  8  9  1  0  0  0  0
  9 10  1  0  0  0  0
 10 11  1  0  0  0  0
 10 12  1  0  0  0  0
 11 13  1  0  0  0  0
 13 15  1  0  0  0  0
 14 12  1  0  0  0  0
 15 14  1  0  0  0  0
 16 18  2  0  0  0  0
 16 22  1  0  0  0  0
 17 23  1  0  0  0  0
 17 29  1  0  0  0  0
 18 19  1  0  0  0  0
 18 26  1  0  0  0  0
 19 20  2  0  0  0  0
 20  3  1  0  0  0  0
 20 21  1  0  0  0  0
 21  5  1  0  0  0  0
 21 22  2  0  0  0  0
 23 24  2  0  0  0  0
 24 30  1  0  0  0  0
 25 26  2  0  0  0  0
 25 30  1  0  0  0  0
 26 27  1  0  0  0  0
 27 28  2  0  0  0  0
 28 29  1  0  0  0  0
 29 30  2  0  0  0  0
M  END
>  <CHROM.1>
72.47552492,-153.50431062,75.65297705,-84.06643823,-59.95522219,-171.56603860
97.78319912,-77.85950168,175.17043395,-127.71902522,-159.33559506,2.19496039
2.06450194,17.46696178,2.14781201,-0.70483730,0.38168112

>  <Name>
1uts_lig

>  <RI>
0

>  <Rbt.Current_Directory>
/home/itssahil/PROJECTS/Mol_Feturizer/New_Systems/rnas/1uts

>  <Rbt.Executable>
rbdock ($Id: //depot/dev/client3/rdock/2013.1/src/exe/rbdock.cxx#4 $)

>  <Rbt.Library>
libRbt.so (2013.1, Build901 2013/11/27)

>  <Rbt.Parameter_File>
/export/apps/rDock/src/rDock_2013.1_src/data/scripts/dock_solv.prm

>  <Rbt.Receptor>
prm/pocket_docking_3.prm

>  <SCORE>
-14.3329

>  <SCORE.INTER>
-14.3389

>  <SCORE.INTER.CONST>
1

>  <SCORE.INTER.POLAR>
0

>  <SCORE.INTER.ROT>
10

>  <SCORE.INTER.SOLV>
5.78236

>  <SCORE.INTER.VDW>
-21.7534

>  <SCORE.INTER.norm>
-0.477963

>  <SCORE.INTRA>
0.00601768

>  <SCORE.INTRA.DIHEDRAL>
-6.19453

>  <SCORE.INTRA.DIHEDRAL.0>
18.0451

>  <SCORE.INTRA.POLAR>
-0.454037

>  <SCORE.INTRA.POLAR.0>
-0.196815

>  <SCORE.INTRA.REPUL>
0

>  <SCORE.INTRA.REPUL.0>
0

>  <SCORE.INTRA.SOLV>
0.115744

>  <SCORE.INTRA.SOLV.lig_0>
-14.7906

>  <SCORE.INTRA.VDW>
4.58914

>  <SCORE.INTRA.VDW.0>
-0.411701

>  <SCORE.INTRA.norm>
0.000200589

>  <SCORE.RESTR>
0

>  <SCORE.RESTR.CAVITY>
0

>  <SCORE.RESTR.norm>
0

>  <SCORE.SYSTEM>
0

>  <SCORE.SYSTEM.CONST>
0

>  <SCORE.SYSTEM.DIHEDRAL>
0

>  <SCORE.SYSTEM.SOLV>
0

>  <SCORE.SYSTEM.norm>
0

>  <SCORE.heavy>
30

>  <SCORE.norm>
-0.477763

>  <RMSD>
8.487

$$$$
1uts_lig
 OpenBabel11021811413D
libRbt.so/2013.1/901 2013/11/27
 30 33  0  0  0  0  0  0  0  0999 V2000
   -1.8923    4.9313   13.2980 N   0  0  0  0  0  0  0  0  0  0  0  0
   -0.7453    3.1613   14.5584 C   0  0  0  0  0  0  0  0  0  0  0  0
    4.2955    3.4154   16.2138 C   0  0  0  0  0  0  0  0  0  0  0  0
    0.1799    3.9295   15.5066 C   0  0  0  0  0  0  0  0  0  0  0  0
    1.5463    3.6387   15.1778 O   0  0  0  0  0  0  0  0  0  0  0  0
   -2.0530    3.9352   14.3812 C   0  0  0  0  0  0  0  0  0  0  0  0
    3.6004    4.7197   16.3010 N   0  0  0  0  0  0  0  0  0  0  0  0
    3.2568    5.0103   17.7182 C   0  0  0  0  0  0  0  0  0  0  0  0
    4.4858    5.5627   18.4463 C   0  0  0  0  0  0  0  0  0  0  0  0
    4.0781    6.0976   19.7648 N   0  0  0  0  0  0  0  0  0  0  0  0
    3.3902    7.4068   19.5737 C   0  0  0  0  0  0  0  0  0  0  0  0
    5.2838    6.2643   20.6247 C   0  0  0  0  0  0  0  0  0  0  0  0
    2.9686    7.9674   20.9416 C   0  0  0  0  0  0  0  0  0  0  0  0
    4.8633    6.8291   21.9935 C   0  0  0  0  0  0  0  0  0  0  0  0
    4.1742    8.1355   21.8017 N   0  0  0  0  0  0  0  0  0  0  0  0
    1.4411    0.0993   16.4790 C   0  0  0  0  0  0  0  0  0  0  0  0
    4.0754   -5.0321   19.2351 N   0  0  0  0  0  0  0  0  0  0  0  0
    2.7586   -0.0546   16.9727 C   0  0  0  0  0  0  0  0  0  0  0  0
    3.6786    1.0238   16.8832 C   0  0  0  0  0  0  0  0  0  0  0  0
    3.2796    2.2586   16.3020 C   0  0  0  0  0  0  0  0  0  0  0  0
    1.9556    2.4063   15.7900 C   0  0  0  0  0  0  0  0  0  0  0  0
    1.0379    1.3244   15.8851 C   0  0  0  0  0  0  0  0  0  0  0  0
    2.7531   -5.4980   19.4145 C   0  0  0  0  0  0  0  0  0  0  0  0
    1.8145   -4.5318   18.9864 C   0  0  0  0  0  0  0  0  0  0  0  0
    2.1581   -2.2087   17.9622 C   0  0  0  0  0  0  0  0  0  0  0  0
    3.1451   -1.2756   17.5431 C   0  0  0  0  0  0  0  0  0  0  0  0
    4.5244   -1.5856   17.6970 C   0  0  0  0  0  0  0  0  0  0  0  0
    4.9151   -2.8275   18.2668 C   0  0  0  0  0  0  0  0  0  0  0  0
    3.9198   -3.7700   18.6747 C   0  0  0  0  0  0  0  0  0  0  0  0
    2.5548   -3.4648   18.5238 C   0  0  0  0  0  0  0  0  0  0  0  0
  1  6  1  0  0  0  0
  2  4  1  0  0  0  0
  3  7  1  0  0  0  0
  4  5  1  0  0  0  0
  6  2  1  0  0  0  0
  7  8  1  0  0  0  0
  8  9  1  0  0  0  0
  9 10  1  0  0  0  0
 10 11  1  0  0  0  0
 10 12  1  0  0  0  0
 11 13  1  0  0  0  0
 13 15  1  0  0  0  0
 14 12  1  0  0  0  0
 15 14  1  0  0  0  0
 16 18  2  0  0  0  0
 16 22  1  0  0  0  0
 17 23  1  0  0  0  0
 17 29  1  0  0  0  0
 18 19  1  0  0  0  0
 18 26  1  0  0  0  0
 19 20  2  0  0  0  0
 20  3  1  0  0  0  0
 20 21  1  0  0  0  0
 21  5  1  0  0  0  0
 21 22  2  0  0  0  0
 23 24  2  0  0  0  0
 24 30  1  0  0  0  0
 25 26  2  0  0  0  0
 25 30  1  0  0  0  0
 26 27  1  0  0  0  0
 27 28  2  0  0  0  0
 28 29  1  0  0  0  0
 29 30  2  0  0  0  0
M  END
>  <CHROM.1>
-46.76201358,-151.16745207,78.39994009,-82.87359680,86.04407331,80.58867514
168.87484635,-75.40205143,-17.37571477,-149.22571444,-143.02894451,2.68654928
2.14757332,17.68514688,1.56295306,-0.87849439,0.06240357

>  <Name>
1uts_lig

>  <RI>
0

>  <Rbt.Current_Directory>
/home/itssahil/PROJECTS/Mol_Feturizer/New_Systems/rnas/1uts

>  <Rbt.Executable>
rbdock ($Id: //depot/dev/client3/rdock/2013.1/src/exe/rbdock.cxx#4 $)

>  <Rbt.Library>
libRbt.so (2013.1, Build901 2013/11/27)

>  <Rbt.Parameter_File>
/export/apps/rDock/src/rDock_2013.1_src/data/scripts/dock_solv.prm

>  <Rbt.Receptor>
prm/pocket_docking_7.prm

>  <SCORE>
-24.9954

>  <SCORE.INTER>
-25.5717

>  <SCORE.INTER.CONST>
1

>  <SCORE.INTER.POLAR>
-2.01903

>  <SCORE.INTER.ROT>
10

>  <SCORE.INTER.SOLV>
6.97237

>  <SCORE.INTER.VDW>
-22.9085

>  <SCORE.INTER.norm>
-0.852389

>  <SCORE.INTRA>
0.576268

>  <SCORE.INTRA.DIHEDRAL>
-4.88661

>  <SCORE.INTRA.DIHEDRAL.0>
18.0451

>  <SCORE.INTRA.POLAR>
-0.652704

>  <SCORE.INTRA.POLAR.0>
-0.196815

>  <SCORE.INTRA.REPUL>
0

>  <SCORE.INTRA.REPUL.0>
0

>  <SCORE.INTRA.SOLV>
-0.13135

>  <SCORE.INTRA.SOLV.lig_0>
-14.7906

>  <SCORE.INTRA.VDW>
5.30445

>  <SCORE.INTRA.VDW.0>
-0.411701

>  <SCORE.INTRA.norm>
0.0192089

>  <SCORE.RESTR>
0

>  <SCORE.RESTR.CAVITY>
0

>  <SCORE.RESTR.norm>
0

>  <SCORE.SYSTEM>
0

>  <SCORE.SYSTEM.CONST>
0

>  <SCORE.SYSTEM.DIHEDRAL>
0

>  <SCORE.SYSTEM.SOLV>
0

>  <SCORE.SYSTEM.norm>
0

>  <SCORE.heavy>
30

>  <SCORE.norm>
-0.83318

>  <RMSD>
8.524

$$$$
1uts_lig
 OpenBabel11021811413D
libRbt.so/2013.1/901 2013/11/27
 30 33  0  0  0  0  0  0  0  0999 V2000
   -2.0442    5.1137   12.9521 N   0  0  0  0  0  0  0  0  0  0  0  0
   -1.4459    4.2803   15.1847 C   0  0  0  0  0  0  0  0  0  0  0  0
    2.9974    3.5350   15.7232 C   0  0  0  0  0  0  0  0  0  0  0  0
   -0.7444    3.0960   15.8558 C   0  0  0  0  0  0  0  0  0  0  0  0
    0.2964    2.6094   14.9957 O   0  0  0  0  0  0  0  0  0  0  0  0
   -1.8638    3.8903   13.7658 C   0  0  0  0  0  0  0  0  0  0  0  0
    2.6560    4.5000   16.7929 N   0  0  0  0  0  0  0  0  0  0  0  0
    3.8992    5.1181   17.3252 C   0  0  0  0  0  0  0  0  0  0  0  0
    3.5626    6.0063   18.5265 C   0  0  0  0  0  0  0  0  0  0  0  0
    3.2893    5.1558   19.7067 N   0  0  0  0  0  0  0  0  0  0  0  0
    1.8564    5.2980   20.0948 C   0  0  0  0  0  0  0  0  0  0  0  0
    4.1760    5.5702   20.8305 C   0  0  0  0  0  0  0  0  0  0  0  0
    1.5697    4.4188   21.3229 C   0  0  0  0  0  0  0  0  0  0  0  0
    3.8872    4.6930   22.0620 C   0  0  0  0  0  0  0  0  0  0  0  0
    2.4554    4.8336   22.4475 N   0  0  0  0  0  0  0  0  0  0  0  0
    1.5627   -0.4751   16.7604 C   0  0  0  0  0  0  0  0  0  0  0  0
    6.0352   -3.7523   19.9610 N   0  0  0  0  0  0  0  0  0  0  0  0
    2.8740   -0.0753   17.1126 C   0  0  0  0  0  0  0  0  0  0  0  0
    3.3327    1.2254   16.7731 C   0  0  0  0  0  0  0  0  0  0  0  0
    2.4779    2.1284   16.0832 C   0  0  0  0  0  0  0  0  0  0  0  0
    1.1617    1.7174   15.7146 C   0  0  0  0  0  0  0  0  0  0  0  0
    0.7069    0.4153   16.0599 C   0  0  0  0  0  0  0  0  0  0  0  0
    5.0680   -4.0997   20.9314 C   0  0  0  0  0  0  0  0  0  0  0  0
    3.8699   -3.3770   20.7318 C   0  0  0  0  0  0  0  0  0  0  0  0
    3.2365   -1.6546   18.9440 C   0  0  0  0  0  0  0  0  0  0  0  0
    3.7115   -0.9715   17.7915 C   0  0  0  0  0  0  0  0  0  0  0  0
    5.0345   -1.2040   17.3247 C   0  0  0  0  0  0  0  0  0  0  0  0
    5.8793   -2.1197   18.0083 C   0  0  0  0  0  0  0  0  0  0  0  0
    5.3938   -2.8158   19.1593 C   0  0  0  0  0  0  0  0  0  0  0  0
    4.0854   -2.5866   19.6229 C   0  0  0  0  0  0  0  0  0  0  0  0
  1  6  1  0  0  0  0
  2  4  1  0  0  0  0
  3  7  1  0  0  0  0
  4  5  1  0  0  0  0
  6  2  1  0  0  0  0
  7  8  1  0  0  0  0
  8  9  1  0  0  0  0
  9 10  1  0  0  0  0
 10 11  1  0  0  0  0
 10 12  1  0  0  0  0
 11 13  1  0  0  0  0
 13 15  1  0  0  0  0
 14 12  1  0  0  0  0
 15 14  1  0  0  0  0
 16 18  2  0  0  0  0
 16 22  1  0  0  0  0
 17 23  1  0  0  0  0
 17 29  1  0  0  0  0
 18 19  1  0  0  0  0
 18 26  1  0  0  0  0
 19 20  2  0  0  0  0
 20  3  1  0  0  0  0
 20 21  1  0  0  0  0
 21  5  1  0  0  0  0
 21 22  2  0  0  0  0
 23 24  2  0  0  0  0
 24 30  1  0  0  0  0
 25 26  2  0  0  0  0
 25 30  1  0  0  0  0
 26 27  1  0  0  0  0
 27 28  2  0  0  0  0
 28 29  1  0  0  0  0
 29 30  2  0  0  0  0
M  END
>  <CHROM.1>
60.63007185,51.35758412,121.40713500,166.66640131,-158.10477342,-174.18911665
75.62390506,-113.90968091,-49.38264337,-92.19715203,-107.29296001,2.55716201
1.85935646,17.93424596,2.57383586,-0.94453041,0.44679245

>  <Name>
1uts_lig

>  <RI>
0

>  <Rbt.Current_Directory>
/home/itssahil/PROJECTS/Mol_Feturizer/New_Systems/rnas/1uts

>  <Rbt.Executable>
rbdock ($Id: //depot/dev/client3/rdock/2013.1/src/exe/rbdock.cxx#4 $)

>  <Rbt.Library>
libRbt.so (2013.1, Build901 2013/11/27)

>  <Rbt.Parameter_File>
/export/apps/rDock/src/rDock_2013.1_src/data/scripts/dock_solv.prm

>  <Rbt.Receptor>
prm/pocket_docking_2.prm

>  <SCORE>
-14.3827

>  <SCORE.INTER>
-16.9347

>  <SCORE.INTER.CONST>
1

>  <SCORE.INTER.POLAR>
-2.01903

>  <SCORE.INTER.ROT>
10

>  <SCORE.INTER.SOLV>
5.82685

>  <SCORE.INTER.VDW>
-16.7687

>  <SCORE.INTER.norm>
-0.56449

>  <SCORE.INTRA>
0.184759

>  <SCORE.INTRA.DIHEDRAL>
0.62758

>  <SCORE.INTRA.DIHEDRAL.0>
18.0451

>  <SCORE.INTRA.POLAR>
0.196815

>  <SCORE.INTRA.POLAR.0>
-0.196815

>  <SCORE.INTRA.REPUL>
0

>  <SCORE.INTRA.REPUL.0>
0

>  <SCORE.INTRA.SOLV>
-0.21276

>  <SCORE.INTRA.SOLV.lig_0>
-14.7906

>  <SCORE.INTRA.VDW>
-0.691823

>  <SCORE.INTRA.VDW.0>
-0.411701

>  <SCORE.INTRA.norm>
0.00615862

>  <SCORE.RESTR>
2.36719

>  <SCORE.RESTR.CAVITY>
2.36719

>  <SCORE.RESTR.norm>
0.0789063

>  <SCORE.SYSTEM>
0

>  <SCORE.SYSTEM.CONST>
0

>  <SCORE.SYSTEM.DIHEDRAL>
0

>  <SCORE.SYSTEM.SOLV>
0

>  <SCORE.SYSTEM.norm>
0

>  <SCORE.heavy>
30

>  <SCORE.norm>
-0.479425

>  <RMSD>
8.569

$$$$
1uts_lig
 OpenBabel11021811413D
libRbt.so/2013.1/901 2013/11/27
 30 33  0  0  0  0  0  0  0  0999 V2000
   -1.5065    4.6974   10.9106 N   0  0  0  0  0  0  0  0  0  0  0  0
   -2.1386    4.2504   13.2425 C   0  0  0  0  0  0  0  0  0  0  0  0
    0.3827    3.7685   16.9371 C   0  0  0  0  0  0  0  0  0  0  0  0
   -1.3870    2.9740   13.6313 C   0  0  0  0  0  0  0  0  0  0  0  0
   -1.5927    2.7066   15.0263 O   0  0  0  0  0  0  0  0  0  0  0  0
   -2.5775    4.1602   11.7798 C   0  0  0  0  0  0  0  0  0  0  0  0
    0.5380    3.8219   18.4086 N   0  0  0  0  0  0  0  0  0  0  0  0
    1.0592    5.1556   18.8091 C   0  0  0  0  0  0  0  0  0  0  0  0
    2.4523    5.3686   18.2096 C   0  0  0  0  0  0  0  0  0  0  0  0
    3.3709    5.8611   19.2606 N   0  0  0  0  0  0  0  0  0  0  0  0
    3.1756    7.3290   19.4368 C   0  0  0  0  0  0  0  0  0  0  0  0
    4.7773    5.5673   18.8650 C   0  0  0  0  0  0  0  0  0  0  0  0
    4.1309    7.8449   20.5251 C   0  0  0  0  0  0  0  0  0  0  0  0
    5.7351    6.0868   19.9524 C   0  0  0  0  0  0  0  0  0  0  0  0
    5.5378    7.5524   20.1294 N   0  0  0  0  0  0  0  0  0  0  0  0
    0.4881   -0.3935   15.5657 C   0  0  0  0  0  0  0  0  0  0  0  0
    5.6653   -3.2222   18.2252 N   0  0  0  0  0  0  0  0  0  0  0  0
    1.4666    0.0824   16.4708 C   0  0  0  0  0  0  0  0  0  0  0  0
    1.4269    1.4324   16.9108 C   0  0  0  0  0  0  0  0  0  0  0  0
    0.4055    2.3064   16.4475 C   0  0  0  0  0  0  0  0  0  0  0  0
   -0.5706    1.8288   15.5222 C   0  0  0  0  0  0  0  0  0  0  0  0
   -0.5276    0.4757   15.0875 C   0  0  0  0  0  0  0  0  0  0  0  0
    6.7262   -2.4543   17.6936 C   0  0  0  0  0  0  0  0  0  0  0  0
    6.2347   -1.3213   17.0062 C   0  0  0  0  0  0  0  0  0  0  0  0
    3.8355   -0.4998   16.6416 C   0  0  0  0  0  0  0  0  0  0  0  0
    2.4715   -0.7848   16.9221 C   0  0  0  0  0  0  0  0  0  0  0  0
    2.1288   -1.9468   17.6669 C   0  0  0  0  0  0  0  0  0  0  0  0
    3.1489   -2.8202   18.1317 C   0  0  0  0  0  0  0  0  0  0  0  0
    4.5211   -2.5233   17.8598 C   0  0  0  0  0  0  0  0  0  0  0  0
    4.8620   -1.3745   17.1227 C   0  0  0  0  0  0  0  0  0  0  0  0
  1  6  1  0  0  0  0
  2  4  1  0  0  0  0
  3  7  1  0  0  0  0
  4  5  1  0  0  0  0
  6  2  1  0  0  0  0
  7  8  1  0  0  0  0
  8  9  1  0  0  0  0
  9 10  1  0  0  0  0
 10 11  1  0  0  0  0
 10 12  1  0  0  0  0
 11 13  1  0  0  0  0
 13 15  1  0  0  0  0
 14 12  1  0  0  0  0
 15 14  1  0  0  0  0
 16 18  2  0  0  0  0
 16 22  1  0  0  0  0
 17 23  1  0  0  0  0
 17 29  1  0  0  0  0
 18 19  1  0  0  0  0
 18 26  1  0  0  0  0
 19 20  2  0  0  0  0
 20  3  1  0  0  0  0
 20 21  1  0  0  0  0
 21  5  1  0  0  0  0
 21 22  2  0  0  0  0
 23 24  2  0  0  0  0
 24 30  1  0  0  0  0
 25 26  2  0  0  0  0
 25 30  1  0  0  0  0
 26 27  1  0  0  0  0
 27 28  2  0  0  0  0
 28 29  1  0  0  0  0
 29 30  2  0  0  0  0
M  END
>  <CHROM.1>
-174.80352568,-149.53208403,157.17066171,-160.03514689,-89.05267968,-62.98426069
-132.08114390,-81.05763609,118.36962979,-47.91816507,111.30665459,2.10281870
2.37387122,16.93658346,2.41230093,-0.70056205,0.25412923

>  <Name>
1uts_lig

>  <RI>
0

>  <Rbt.Current_Directory>
/home/itssahil/PROJECTS/Mol_Feturizer/New_Systems/rnas/1uts

>  <Rbt.Executable>
rbdock ($Id: //depot/dev/client3/rdock/2013.1/src/exe/rbdock.cxx#4 $)

>  <Rbt.Library>
libRbt.so (2013.1, Build901 2013/11/27)

>  <Rbt.Parameter_File>
/export/apps/rDock/src/rDock_2013.1_src/data/scripts/dock_solv.prm

>  <Rbt.Receptor>
prm/pocket_docking_4.prm

>  <SCORE>
-16.2376

>  <SCORE.INTER>
-20.7215

>  <SCORE.INTER.CONST>
1

>  <SCORE.INTER.POLAR>
-1.62366

>  <SCORE.INTER.ROT>
10

>  <SCORE.INTER.SOLV>
6.27136

>  <SCORE.INTER.VDW>
-20.7593

>  <SCORE.INTER.norm>
-0.690718

>  <SCORE.INTRA>
4.22804

>  <SCORE.INTRA.DIHEDRAL>
5.06828

>  <SCORE.INTRA.DIHEDRAL.0>
18.0451

>  <SCORE.INTRA.POLAR>
0.196815

>  <SCORE.INTRA.POLAR.0>
-0.196815

>  <SCORE.INTRA.REPUL>
0

>  <SCORE.INTRA.REPUL.0>
0

>  <SCORE.INTRA.SOLV>
-0.555807

>  <SCORE.INTRA.SOLV.lig_0>
-14.7906

>  <SCORE.INTRA.VDW>
1.30263

>  <SCORE.INTRA.VDW.0>
-0.411701

>  <SCORE.INTRA.norm>
0.140935

>  <SCORE.RESTR>
0.255947

>  <SCORE.RESTR.CAVITY>
0.255947

>  <SCORE.RESTR.norm>
0.00853156

>  <SCORE.SYSTEM>
0

>  <SCORE.SYSTEM.CONST>
0

>  <SCORE.SYSTEM.DIHEDRAL>
0

>  <SCORE.SYSTEM.SOLV>
0

>  <SCORE.SYSTEM.norm>
0

>  <SCORE.heavy>
30

>  <SCORE.norm>
-0.541252

>  <RMSD>
8.666

$$$$
1uts_lig
 OpenBabel11021811413D
libRbt.so/2013.1/901 2013/11/27
 30 33  0  0  0  0  0  0  0  0999 V2000
    1.1727    7.1398   20.9630 N   0  0  0  0  0  0  0  0  0  0  0  0
    0.4227    7.1734   18.6234 C   0  0  0  0  0  0  0  0  0  0  0  0
   -1.2984    3.8211   15.2639 C   0  0  0  0  0  0  0  0  0  0  0  0
    0.3543    5.6485   18.5002 C   0  0  0  0  0  0  0  0  0  0  0  0
    0.4684    5.2768   17.1186 O   0  0  0  0  0  0  0  0  0  0  0  0
    0.0894    7.5862   20.0582 C   0  0  0  0  0  0  0  0  0  0  0  0
   -0.9663    3.7311   13.8238 N   0  0  0  0  0  0  0  0  0  0  0  0
   -2.2101    3.5288   13.0346 C   0  0  0  0  0  0  0  0  0  0  0  0
   -2.7554    4.8828   12.5713 C   0  0  0  0  0  0  0  0  0  0  0  0
   -1.8381    5.4655   11.5663 N   0  0  0  0  0  0  0  0  0  0  0  0
   -2.1889    6.8990   11.3521 C   0  0  0  0  0  0  0  0  0  0  0  0
   -1.9559    4.7049   10.2901 C   0  0  0  0  0  0  0  0  0  0  0  0
   -1.2405    7.5066   10.3058 C   0  0  0  0  0  0  0  0  0  0  0  0
   -1.0094    5.3148    9.2405 C   0  0  0  0  0  0  0  0  0  0  0  0
   -1.3588    6.7471    9.0288 N   0  0  0  0  0  0  0  0  0  0  0  0
    1.7508    1.7694   17.6529 C   0  0  0  0  0  0  0  0  0  0  0  0
    1.5654   -4.5536   16.6822 N   0  0  0  0  0  0  0  0  0  0  0  0
    0.9097    1.0309   16.7867 C   0  0  0  0  0  0  0  0  0  0  0  0
   -0.0766    1.7019   16.0157 C   0  0  0  0  0  0  0  0  0  0  0  0
   -0.2198    3.1135   16.1089 C   0  0  0  0  0  0  0  0  0  0  0  0
    0.6184    3.8543   16.9953 C   0  0  0  0  0  0  0  0  0  0  0  0
    1.6061    3.1776   17.7623 C   0  0  0  0  0  0  0  0  0  0  0  0
    2.2423   -4.6734   17.9171 C   0  0  0  0  0  0  0  0  0  0  0  0
    2.4292   -3.4067   18.5158 C   0  0  0  0  0  0  0  0  0  0  0  0
    1.7241   -1.0704   17.7357 C   0  0  0  0  0  0  0  0  0  0  0  0
    1.0558   -0.3608   16.7011 C   0  0  0  0  0  0  0  0  0  0  0  0
    0.5301   -1.0655   15.5835 C   0  0  0  0  0  0  0  0  0  0  0  0
    0.6707   -2.4774   15.5025 C   0  0  0  0  0  0  0  0  0  0  0  0
    1.3313   -3.1900   16.5517 C   0  0  0  0  0  0  0  0  0  0  0  0
    1.8527   -2.4944   17.6579 C   0  0  0  0  0  0  0  0  0  0  0  0
  1  6  1  0  0  0  0
  2  4  1  0  0  0  0
  3  7  1  0  0  0  0
  4  5  1  0  0  0  0
  6  2  1  0  0  0  0
  7  8  1  0  0  0  0
  8  9  1  0  0  0  0
  9 10  1  0  0  0  0
 10 11  1  0  0  0  0
 10 12  1  0  0  0  0
 11 13  1  0  0  0  0
 13 15  1  0  0  0  0
 14 12  1  0  0  0  0
 15 14  1  0  0  0  0
 16 18  2  0  0  0  0
 16 22  1  0  0  0  0
 17 23  1  0  0  0  0
 17 29  1  0  0  0  0
 18 19  1  0  0  0  0
 18 26  1  0  0  0  0
 19 20  2  0  0  0  0
 20  3  1  0  0  0  0
 20 21  1  0  0  0  0
 21  5  1  0  0  0  0
 21 22  2  0  0  0  0
 23 24  2  0  0  0  0
 24 30  1  0  0  0  0
 25 26  2  0  0  0  0
 25 30  1  0  0  0  0
 26 27  1  0  0  0  0
 27 28  2  0  0  0  0
 28 29  1  0  0  0  0
 29 30  2  0  0  0  0
M  END
>  <CHROM.1>
58.66325390,171.42373362,142.07424009,170.95142766,68.23587246,93.02609036
68.57936211,-166.97529228,19.23900345,-67.15328428,129.06152106,0.07581781
2.75103033,15.46043584,-2.68848323,1.24012113,-2.62971827

>  <Name>
1uts_lig

>  <RI>
0

>  <Rbt.Current_Directory>
/home/itssahil/PROJECTS/Mol_Feturizer/New_Systems/rnas/1uts

>  <Rbt.Executable>
rbdock ($Id: //depot/dev/client3/rdock/2013.1/src/exe/rbdock.cxx#4 $)

>  <Rbt.Library>
libRbt.so (2013.1, Build901 2013/11/27)

>  <Rbt.Parameter_File>
/export/apps/rDock/src/rDock_2013.1_src/data/scripts/dock_solv.prm

>  <Rbt.Receptor>
prm/pocket_docking_6.prm

>  <SCORE>
-33.3818

>  <SCORE.INTER>
-33.3066

>  <SCORE.INTER.CONST>
1

>  <SCORE.INTER.POLAR>
-2.38459

>  <SCORE.INTER.ROT>
10

>  <SCORE.INTER.SOLV>
11.3061

>  <SCORE.INTER.VDW>
-28.2911

>  <SCORE.INTER.norm>
-1.11022

>  <SCORE.INTRA>
-0.075235

>  <SCORE.INTRA.DIHEDRAL>
-7.72075

>  <SCORE.INTRA.DIHEDRAL.0>
18.0451

>  <SCORE.INTRA.POLAR>
0.196815

>  <SCORE.INTRA.POLAR.0>
-0.196815

>  <SCORE.INTRA.REPUL>
0.00117751

>  <SCORE.INTRA.REPUL.0>
0

>  <SCORE.INTRA.SOLV>
-0.303688

>  <SCORE.INTRA.SOLV.lig_0>
-14.7906

>  <SCORE.INTRA.VDW>
3.26192

>  <SCORE.INTRA.VDW.0>
-0.411701

>  <SCORE.INTRA.norm>
-0.00250783

>  <SCORE.RESTR>
0

>  <SCORE.RESTR.CAVITY>
0

>  <SCORE.RESTR.norm>
0

>  <SCORE.SYSTEM>
0

>  <SCORE.SYSTEM.CONST>
0

>  <SCORE.SYSTEM.DIHEDRAL>
0

>  <SCORE.SYSTEM.SOLV>
0

>  <SCORE.SYSTEM.norm>
0

>  <SCORE.heavy>
30

>  <SCORE.norm>
-1.11273

>  <RMSD>
8.668

$$$$
1uts_lig
 OpenBabel11021811413D
libRbt.so/2013.1/901 2013/11/27
 30 33  0  0  0  0  0  0  0  0999 V2000
   -1.9989    5.1847   12.7051 N   0  0  0  0  0  0  0  0  0  0  0  0
   -1.5477    4.1100   14.8682 C   0  0  0  0  0  0  0  0  0  0  0  0
    3.2399    3.1509   16.0135 C   0  0  0  0  0  0  0  0  0  0  0  0
   -0.8945    2.8747   15.4948 C   0  0  0  0  0  0  0  0  0  0  0  0
    0.4729    2.7905   15.0673 O   0  0  0  0  0  0  0  0  0  0  0  0
   -1.7241    3.8883   13.3649 C   0  0  0  0  0  0  0  0  0  0  0  0
    2.3032    4.2971   16.0460 N   0  0  0  0  0  0  0  0  0  0  0  0
    1.9408    4.6080   17.4542 C   0  0  0  0  0  0  0  0  0  0  0  0
    0.5772    5.3039   17.4965 C   0  0  0  0  0  0  0  0  0  0  0  0
    0.3409    5.8423   18.8549 N   0  0  0  0  0  0  0  0  0  0  0  0
    1.3755    6.8709   19.1637 C   0  0  0  0  0  0  0  0  0  0  0  0
    0.4017    4.7299   19.8448 C   0  0  0  0  0  0  0  0  0  0  0  0
    1.1355    7.4297   20.5756 C   0  0  0  0  0  0  0  0  0  0  0  0
    0.1652    5.2889   21.2594 C   0  0  0  0  0  0  0  0  0  0  0  0
    1.1974    6.3179   21.5662 N   0  0  0  0  0  0  0  0  0  0  0  0
    1.0945   -0.6393   16.5100 C   0  0  0  0  0  0  0  0  0  0  0  0
    4.7575   -5.0394   19.3537 N   0  0  0  0  0  0  0  0  0  0  0  0
    2.4296   -0.5127   16.9627 C   0  0  0  0  0  0  0  0  0  0  0  0
    3.1191    0.7181   16.7982 C   0  0  0  0  0  0  0  0  0  0  0  0
    2.4716    1.8247   16.1832 C   0  0  0  0  0  0  0  0  0  0  0  0
    1.1308    1.6898   15.7128 C   0  0  0  0  0  0  0  0  0  0  0  0
    0.4445    0.4563   15.8829 C   0  0  0  0  0  0  0  0  0  0  0  0
    3.5699   -5.7923   19.4960 C   0  0  0  0  0  0  0  0  0  0  0  0
    2.4530   -5.0689   19.0197 C   0  0  0  0  0  0  0  0  0  0  0  0
    2.2978   -2.7379   17.9680 C   0  0  0  0  0  0  0  0  0  0  0  0
    3.0619   -1.6085   17.5668 C   0  0  0  0  0  0  0  0  0  0  0  0
    4.4689   -1.5951   17.7728 C   0  0  0  0  0  0  0  0  0  0  0  0
    5.1099   -2.7104   18.3769 C   0  0  0  0  0  0  0  0  0  0  0  0
    4.3403   -3.8509   18.7668 C   0  0  0  0  0  0  0  0  0  0  0  0
    2.9482   -3.8656   18.5642 C   0  0  0  0  0  0  0  0  0  0  0  0
  1  6  1  0  0  0  0
  2  4  1  0  0  0  0
  3  7  1  0  0  0  0
  4  5  1  0  0  0  0
  6  2  1  0  0  0  0
  7  8  1  0  0  0  0
  8  9  1  0  0  0  0
  9 10  1  0  0  0  0
 10 11  1  0  0  0  0
 10 12  1  0  0  0  0
 11 13  1  0  0  0  0
 13 15  1  0  0  0  0
 14 12  1  0  0  0  0
 15 14  1  0  0  0  0
 16 18  2  0  0  0  0
 16 22  1  0  0  0  0
 17 23  1  0  0  0  0
 17 29  1  0  0  0  0
 18 19  1  0  0  0  0
 18 26  1  0  0  0  0
 19 20  2  0  0  0  0
 20  3  1  0  0  0  0
 20 21  1  0  0  0  0
 21  5  1  0  0  0  0
 21 22  2  0  0  0  0
 23 24  2  0  0  0  0
 24 30  1  0  0  0  0
 25 26  2  0  0  0  0
 25 30  1  0  0  0  0
 26 27  1  0  0  0  0
 27 28  2  0  0  0  0
 28 29  1  0  0  0  0
 29 30  2  0  0  0  0
M  END
>  <CHROM.1>
62.45891557,70.12545039,79.35273062,176.16660513,-164.56168002,-154.79904331
-169.13705833,62.68614465,-12.74777394,-150.37846653,-139.55293142,1.60903818
1.68004812,17.46490626,2.40524903,-1.07564212,0.65228053

>  <Name>
1uts_lig

>  <RI>
0

>  <Rbt.Current_Directory>
/home/itssahil/PROJECTS/Mol_Feturizer/New_Systems/rnas/1uts

>  <Rbt.Executable>
rbdock ($Id: //depot/dev/client3/rdock/2013.1/src/exe/rbdock.cxx#4 $)

>  <Rbt.Library>
libRbt.so (2013.1, Build901 2013/11/27)

>  <Rbt.Parameter_File>
/export/apps/rDock/src/rDock_2013.1_src/data/scripts/dock_solv.prm

>  <Rbt.Receptor>
prm/pocket_docking_4.prm

>  <SCORE>
-27.6266

>  <SCORE.INTER>
-25.3651

>  <SCORE.INTER.CONST>
1

>  <SCORE.INTER.POLAR>
-2.01677

>  <SCORE.INTER.ROT>
10

>  <SCORE.INTER.SOLV>
6.8744

>  <SCORE.INTER.VDW>
-22.7456

>  <SCORE.INTER.norm>
-0.845503

>  <SCORE.INTRA>
-2.26151

>  <SCORE.INTRA.DIHEDRAL>
-11.0814

>  <SCORE.INTRA.DIHEDRAL.0>
18.0451

>  <SCORE.INTRA.POLAR>
-0.664902

>  <SCORE.INTRA.POLAR.0>
-0.196815

>  <SCORE.INTRA.REPUL>
0

>  <SCORE.INTRA.REPUL.0>
0

>  <SCORE.INTRA.SOLV>
-0.0461644

>  <SCORE.INTRA.SOLV.lig_0>
-14.7906

>  <SCORE.INTRA.VDW>
5.56296

>  <SCORE.INTRA.VDW.0>
-0.411701

>  <SCORE.INTRA.norm>
-0.0753837

>  <SCORE.RESTR>
0

>  <SCORE.RESTR.CAVITY>
0

>  <SCORE.RESTR.norm>
0

>  <SCORE.SYSTEM>
0

>  <SCORE.SYSTEM.CONST>
0

>  <SCORE.SYSTEM.DIHEDRAL>
0

>  <SCORE.SYSTEM.SOLV>
0

>  <SCORE.SYSTEM.norm>
0

>  <SCORE.heavy>
30

>  <SCORE.norm>
-0.920887

>  <RMSD>
8.719

$$$$
1uts_lig
 OpenBabel11021811413D
libRbt.so/2013.1/901 2013/11/27
 30 33  0  0  0  0  0  0  0  0999 V2000
    1.6636    5.5194   19.3681 N   0  0  0  0  0  0  0  0  0  0  0  0
    0.1807    4.9348   17.4982 C   0  0  0  0  0  0  0  0  0  0  0  0
   -2.0445    3.7827   12.9104 C   0  0  0  0  0  0  0  0  0  0  0  0
   -1.2548    5.0420   16.9757 C   0  0  0  0  0  0  0  0  0  0  0  0
   -1.3548    4.3622   15.7157 O   0  0  0  0  0  0  0  0  0  0  0  0
    0.3095    5.7203   18.8046 C   0  0  0  0  0  0  0  0  0  0  0  0
   -2.6679    4.0142   11.5875 N   0  0  0  0  0  0  0  0  0  0  0  0
   -1.6088    4.1915   10.5589 C   0  0  0  0  0  0  0  0  0  0  0  0
   -1.9835    5.3446    9.6232 C   0  0  0  0  0  0  0  0  0  0  0  0
   -3.2022    4.9862    8.8633 N   0  0  0  0  0  0  0  0  0  0  0  0
   -3.0569    5.4489    7.4531 C   0  0  0  0  0  0  0  0  0  0  0  0
   -4.3878    5.6254    9.5009 C   0  0  0  0  0  0  0  0  0  0  0  0
   -4.3226    5.0818    6.6616 C   0  0  0  0  0  0  0  0  0  0  0  0
   -5.6554    5.2616    8.7069 C   0  0  0  0  0  0  0  0  0  0  0  0
   -5.5086    5.7218    7.2981 N   0  0  0  0  0  0  0  0  0  0  0  0
   -5.0959    4.0089   16.0493 C   0  0  0  0  0  0  0  0  0  0  0  0
  -10.9596    3.1233   13.6553 N   0  0  0  0  0  0  0  0  0  0  0  0
   -5.4708    3.7458   14.7101 C   0  0  0  0  0  0  0  0  0  0  0  0
   -4.4770    3.6743   13.6977 C   0  0  0  0  0  0  0  0  0  0  0  0
   -3.1064    3.8631   14.0257 C   0  0  0  0  0  0  0  0  0  0  0  0
   -2.7321    4.1444   15.3740 C   0  0  0  0  0  0  0  0  0  0  0  0
   -3.7309    4.2117   16.3837 C   0  0  0  0  0  0  0  0  0  0  0  0
  -11.4264    3.4804   14.9407 C   0  0  0  0  0  0  0  0  0  0  0  0
  -10.3482    3.7738   15.8062 C   0  0  0  0  0  0  0  0  0  0  0  0
   -7.8213    3.7799   15.3836 C   0  0  0  0  0  0  0  0  0  0  0  0
   -6.8243    3.5623   14.3941 C   0  0  0  0  0  0  0  0  0  0  0  0
   -7.2026    3.1651   13.0820 C   0  0  0  0  0  0  0  0  0  0  0  0
   -8.5755    2.9884   12.7605 C   0  0  0  0  0  0  0  0  0  0  0  0
   -9.5770    3.2216   13.7543 C   0  0  0  0  0  0  0  0  0  0  0  0
   -9.2046    3.6139   15.0531 C   0  0  0  0  0  0  0  0  0  0  0  0
  1  6  1  0  0  0  0
  2  4  1  0  0  0  0
  3  7  1  0  0  0  0
  4  5  1  0  0  0  0
  6  2  1  0  0  0  0
  7  8  1  0  0  0  0
  8  9  1  0  0  0  0
  9 10  1  0  0  0  0
 10 11  1  0  0  0  0
 10 12  1  0  0  0  0
 11 13  1  0  0  0  0
 13 15  1  0  0  0  0
 14 12  1  0  0  0  0
 15 14  1  0  0  0  0
 16 18  2  0  0  0  0
 16 22  1  0  0  0  0
 17 23  1  0  0  0  0
 17 29  1  0  0  0  0
 18 19  1  0  0  0  0
 18 26  1  0  0  0  0
 19 20  2  0  0  0  0
 20  3  1  0  0  0  0
 20 21  1  0  0  0  0
 21  5  1  0  0  0  0
 21 22  2  0  0  0  0
 23 24  2  0  0  0  0
 24 30  1  0  0  0  0
 25 26  2  0  0  0  0
 25 30  1  0  0  0  0
 26 27  1  0  0  0  0
 27 28  2  0  0  0  0
 28 29  1  0  0  0  0
 29 30  2  0  0  0  0
M  END
>  <CHROM.1>
-58.90389582,177.04887237,169.29069851,165.03460513,175.14334262,-137.44220642
-65.17271473,-139.57674037,6.66642414,21.21755787,161.10068316,-4.56787397
4.35637145,13.29483745,-0.74684312,-0.17734009,-1.47963693

>  <Name>
1uts_lig

>  <RI>
0

>  <Rbt.Current_Directory>
/home/itssahil/PROJECTS/Mol_Feturizer/New_Systems/rnas/1uts

>  <Rbt.Executable>
rbdock ($Id: //depot/dev/client3/rdock/2013.1/src/exe/rbdock.cxx#4 $)

>  <Rbt.Library>
libRbt.so (2013.1, Build901 2013/11/27)

>  <Rbt.Parameter_File>
/export/apps/rDock/src/rDock_2013.1_src/data/scripts/dock_solv.prm

>  <Rbt.Receptor>
prm/pocket_docking_7.prm

>  <SCORE>
-36.0736

>  <SCORE.INTER>
-36.6869

>  <SCORE.INTER.CONST>
1

>  <SCORE.INTER.POLAR>
-0.951079

>  <SCORE.INTER.ROT>
10

>  <SCORE.INTER.SOLV>
11.4571

>  <SCORE.INTER.VDW>
-35.3734

>  <SCORE.INTER.norm>
-1.2229

>  <SCORE.INTRA>
0.61326

>  <SCORE.INTRA.DIHEDRAL>
-9.62138

>  <SCORE.INTRA.DIHEDRAL.0>
18.0451

>  <SCORE.INTRA.POLAR>
0.196815

>  <SCORE.INTRA.POLAR.0>
-0.196815

>  <SCORE.INTRA.REPUL>
0

>  <SCORE.INTRA.REPUL.0>
0

>  <SCORE.INTRA.SOLV>
-0.384661

>  <SCORE.INTRA.SOLV.lig_0>
-14.7906

>  <SCORE.INTRA.VDW>
4.94711

>  <SCORE.INTRA.VDW.0>
-0.411701

>  <SCORE.INTRA.norm>
0.020442

>  <SCORE.RESTR>
0

>  <SCORE.RESTR.CAVITY>
0

>  <SCORE.RESTR.norm>
0

>  <SCORE.SYSTEM>
0

>  <SCORE.SYSTEM.CONST>
0

>  <SCORE.SYSTEM.DIHEDRAL>
0

>  <SCORE.SYSTEM.SOLV>
0

>  <SCORE.SYSTEM.norm>
0

>  <SCORE.heavy>
30

>  <SCORE.norm>
-1.20245

>  <RMSD>
8.738

$$$$
1uts_lig
 OpenBabel11021811413D
libRbt.so/2013.1/901 2013/11/27
 30 33  0  0  0  0  0  0  0  0999 V2000
    1.6744    4.2147   20.4502 N   0  0  0  0  0  0  0  0  0  0  0  0
    3.6071    5.4457   19.5632 C   0  0  0  0  0  0  0  0  0  0  0  0
    3.5001    3.1936   16.0196 C   0  0  0  0  0  0  0  0  0  0  0  0
    5.0858    5.3272   19.1830 C   0  0  0  0  0  0  0  0  0  0  0  0
    5.1978    4.7048   17.8946 O   0  0  0  0  0  0  0  0  0  0  0  0
    3.1158    4.1119   20.1287 C   0  0  0  0  0  0  0  0  0  0  0  0
    2.7533    4.3506   16.5634 N   0  0  0  0  0  0  0  0  0  0  0  0
    1.5966    4.6593   15.6815 C   0  0  0  0  0  0  0  0  0  0  0  0
    0.4154    3.7529   16.0402 C   0  0  0  0  0  0  0  0  0  0  0  0
   -0.8236    4.2985   15.4418 N   0  0  0  0  0  0  0  0  0  0  0  0
   -1.9936    3.8830   16.2679 C   0  0  0  0  0  0  0  0  0  0  0  0
   -0.9645    3.7904   14.0479 C   0  0  0  0  0  0  0  0  0  0  0  0
   -3.2830    4.4447   15.6472 C   0  0  0  0  0  0  0  0  0  0  0  0
   -2.2573    4.3493   13.4266 C   0  0  0  0  0  0  0  0  0  0  0  0
   -3.4251    3.9360   14.2535 N   0  0  0  0  0  0  0  0  0  0  0  0
    5.8000    1.2097   19.1802 C   0  0  0  0  0  0  0  0  0  0  0  0
    4.4465   -5.1081   18.9892 N   0  0  0  0  0  0  0  0  0  0  0  0
    4.9820    0.4489   18.3110 C   0  0  0  0  0  0  0  0  0  0  0  0
    4.2391    1.0982   17.2893 C   0  0  0  0  0  0  0  0  0  0  0  0
    4.3166    2.5095   17.1347 C   0  0  0  0  0  0  0  0  0  0  0  0
    5.1293    3.2765   18.0227 C   0  0  0  0  0  0  0  0  0  0  0  0
    5.8733    2.6208   19.0416 C   0  0  0  0  0  0  0  0  0  0  0  0
    3.1303   -5.0954   19.5042 C   0  0  0  0  0  0  0  0  0  0  0  0
    2.6420   -3.7733   19.6102 C   0  0  0  0  0  0  0  0  0  0  0  0
    3.7334   -1.5361   19.0038 C   0  0  0  0  0  0  0  0  0  0  0  0
    4.9095   -0.9421   18.4705 C   0  0  0  0  0  0  0  0  0  0  0  0
    6.0087   -1.7613   18.0927 C   0  0  0  0  0  0  0  0  0  0  0  0
    5.9303   -3.1719   18.2462 C   0  0  0  0  0  0  0  0  0  0  0  0
    4.7406   -3.7677   18.7701 C   0  0  0  0  0  0  0  0  0  0  0  0
    3.6522   -2.9588   19.1449 C   0  0  0  0  0  0  0  0  0  0  0  0
  1  6  1  0  0  0  0
  2  4  1  0  0  0  0
  3  7  1  0  0  0  0
  4  5  1  0  0  0  0
  6  2  1  0  0  0  0
  7  8  1  0  0  0  0
  8  9  1  0  0  0  0
  9 10  1  0  0  0  0
 10 11  1  0  0  0  0
 10 12  1  0  0  0  0
 11 13  1  0  0  0  0
 13 15  1  0  0  0  0
 14 12  1  0  0  0  0
 15 14  1  0  0  0  0
 16 18  2  0  0  0  0
 16 22  1  0  0  0  0
 17 23  1  0  0  0  0
 17 29  1  0  0  0  0
 18 19  1  0  0  0  0
 18 26  1  0  0  0  0
 19 20  2  0  0  0  0
 20  3  1  0  0  0  0
 20 21  1  0  0  0  0
 21  5  1  0  0  0  0
 21 22  2  0  0  0  0
 23 24  2  0  0  0  0
 24 30  1  0  0  0  0
 25 26  2  0  0  0  0
 25 30  1  0  0  0  0
 26 27  1  0  0  0  0
 27 28  2  0  0  0  0
 28 29  1  0  0  0  0
 29 30  2  0  0  0  0
M  END
>  <CHROM.1>
-57.28091266,81.45474435,-157.52192581,-83.08474240,-177.99272901,83.43200789
164.44004379,-152.54107595,107.42596172,131.13831424,134.93256181,2.66637301
1.74389087,17.60579293,-2.28651739,0.49508928,3.08755642

>  <Name>
1uts_lig

>  <RI>
0

>  <Rbt.Current_Directory>
/home/itssahil/PROJECTS/Mol_Feturizer/New_Systems/rnas/1uts

>  <Rbt.Executable>
rbdock ($Id: //depot/dev/client3/rdock/2013.1/src/exe/rbdock.cxx#4 $)

>  <Rbt.Library>
libRbt.so (2013.1, Build901 2013/11/27)

>  <Rbt.Parameter_File>
/export/apps/rDock/src/rDock_2013.1_src/data/scripts/dock_solv.prm

>  <Rbt.Receptor>
prm/pocket_docking_3.prm

>  <SCORE>
-12.0589

>  <SCORE.INTER>
-11.3376

>  <SCORE.INTER.CONST>
1

>  <SCORE.INTER.POLAR>
-0.88048

>  <SCORE.INTER.ROT>
10

>  <SCORE.INTER.SOLV>
4.80833

>  <SCORE.INTER.VDW>
-16.4929

>  <SCORE.INTER.norm>
-0.377921

>  <SCORE.INTRA>
-0.934729

>  <SCORE.INTRA.DIHEDRAL>
-1.96008

>  <SCORE.INTRA.DIHEDRAL.0>
18.0451

>  <SCORE.INTRA.POLAR>
0.0600993

>  <SCORE.INTRA.POLAR.0>
-0.196815

>  <SCORE.INTRA.REPUL>
0

>  <SCORE.INTRA.REPUL.0>
0

>  <SCORE.INTRA.SOLV>
0.0120027

>  <SCORE.INTRA.SOLV.lig_0>
-14.7906

>  <SCORE.INTRA.VDW>
-0.16503

>  <SCORE.INTRA.VDW.0>
-0.411701

>  <SCORE.INTRA.norm>
-0.0311576

>  <SCORE.RESTR>
0.213488

>  <SCORE.RESTR.CAVITY>
0.213488

>  <SCORE.RESTR.norm>
0.00711627

>  <SCORE.SYSTEM>
0

>  <SCORE.SYSTEM.CONST>
0

>  <SCORE.SYSTEM.DIHEDRAL>
0

>  <SCORE.SYSTEM.SOLV>
0

>  <SCORE.SYSTEM.norm>
0

>  <SCORE.heavy>
30

>  <SCORE.norm>
-0.401962

>  <RMSD>
8.768

$$$$
1uts_lig
 OpenBabel11021811413D
libRbt.so/2013.1/901 2013/11/27
 30 33  0  0  0  0  0  0  0  0999 V2000
    1.4582    4.5382   15.4835 N   0  0  0  0  0  0  0  0  0  0  0  0
   -0.5590    3.1448   15.6465 C   0  0  0  0  0  0  0  0  0  0  0  0
   -3.1718    3.5132   13.7398 C   0  0  0  0  0  0  0  0  0  0  0  0
   -1.8526    2.9756   16.4485 C   0  0  0  0  0  0  0  0  0  0  0  0
   -2.5343    4.2363   16.5240 O   0  0  0  0  0  0  0  0  0  0  0  0
    0.3926    4.0753   16.4009 C   0  0  0  0  0  0  0  0  0  0  0  0
   -3.4322    4.3625   12.5553 N   0  0  0  0  0  0  0  0  0  0  0  0
   -2.4728    4.0194   11.4723 C   0  0  0  0  0  0  0  0  0  0  0  0
   -1.4792    5.1685   11.2776 C   0  0  0  0  0  0  0  0  0  0  0  0
   -1.8051    5.8953   10.0300 N   0  0  0  0  0  0  0  0  0  0  0  0
   -0.5856    5.9786    9.1758 C   0  0  0  0  0  0  0  0  0  0  0  0
   -2.2976    7.2607   10.3679 C   0  0  0  0  0  0  0  0  0  0  0  0
   -0.9193    6.7364    7.8806 C   0  0  0  0  0  0  0  0  0  0  0  0
   -2.6286    8.0218    9.0715 C   0  0  0  0  0  0  0  0  0  0  0  0
   -1.4108    8.1025    8.2179 N   0  0  0  0  0  0  0  0  0  0  0  0
   -6.2990    4.1401   16.7468 C   0  0  0  0  0  0  0  0  0  0  0  0
  -12.1307    3.4480   14.2171 N   0  0  0  0  0  0  0  0  0  0  0  0
   -6.6480    3.8112   15.4151 C   0  0  0  0  0  0  0  0  0  0  0  0
   -5.6297    3.6099   14.4456 C   0  0  0  0  0  0  0  0  0  0  0  0
   -4.2606    3.7345   14.8091 C   0  0  0  0  0  0  0  0  0  0  0  0
   -3.9114    4.0822   16.1486 C   0  0  0  0  0  0  0  0  0  0  0  0
   -4.9350    4.2795   17.1156 C   0  0  0  0  0  0  0  0  0  0  0  0
  -12.6134    3.8308   15.4891 C   0  0  0  0  0  0  0  0  0  0  0  0
  -11.5456    4.0750   16.3822 C   0  0  0  0  0  0  0  0  0  0  0  0
   -9.0110    3.9593   16.0264 C   0  0  0  0  0  0  0  0  0  0  0  0
   -7.9999    3.6915   15.0639 C   0  0  0  0  0  0  0  0  0  0  0  0
   -8.3622    3.3089   13.7430 C   0  0  0  0  0  0  0  0  0  0  0  0
   -9.7331    3.1969   13.3857 C   0  0  0  0  0  0  0  0  0  0  0  0
  -10.7480    3.4805   14.3524 C   0  0  0  0  0  0  0  0  0  0  0  0
  -10.3915    3.8586   15.6598 C   0  0  0  0  0  0  0  0  0  0  0  0
  1  6  1  0  0  0  0
  2  4  1  0  0  0  0
  3  7  1  0  0  0  0
  4  5  1  0  0  0  0
  6  2  1  0  0  0  0
  7  8  1  0  0  0  0
  8  9  1  0  0  0  0
  9 10  1  0  0  0  0
 10 11  1  0  0  0  0
 10 12  1  0  0  0  0
 11 13  1  0  0  0  0
 13 15  1  0  0  0  0
 14 12  1  0  0  0  0
 15 14  1  0  0  0  0
 16 18  2  0  0  0  0
 16 22  1  0  0  0  0
 17 23  1  0  0  0  0
 17 29  1  0  0  0  0
 18 19  1  0  0  0  0
 18 26  1  0  0  0  0
 19 20  2  0  0  0  0
 20  3  1  0  0  0  0
 20 21  1  0  0  0  0
 21  5  1  0  0  0  0
 21 22  2  0  0  0  0
 23 24  2  0  0  0  0
 24 30  1  0  0  0  0
 25 26  2  0  0  0  0
 25 30  1  0  0  0  0
 26 27  1  0  0  0  0
 27 28  2  0  0  0  0
 28 29  1  0  0  0  0
 29 30  2  0  0  0  0
M  END
>  <CHROM.1>
77.04690384,65.00068491,-173.20918662,130.10888377,-164.37521342,-110.07062321
-106.09337807,-126.97874427,2.86245653,52.78817617,-66.44394775,-4.70569960
4.53931701,13.68020937,-0.46763078,0.05124869,1.96054315

>  <Name>
1uts_lig

>  <RI>
0

>  <Rbt.Current_Directory>
/home/itssahil/PROJECTS/Mol_Feturizer/New_Systems/rnas/1uts

>  <Rbt.Executable>
rbdock ($Id: //depot/dev/client3/rdock/2013.1/src/exe/rbdock.cxx#4 $)

>  <Rbt.Library>
libRbt.so (2013.1, Build901 2013/11/27)

>  <Rbt.Parameter_File>
/export/apps/rDock/src/rDock_2013.1_src/data/scripts/dock_solv.prm

>  <Rbt.Receptor>
prm/pocket_docking_8.prm

>  <SCORE>
-46.1327

>  <SCORE.INTER>
-52.3995

>  <SCORE.INTER.CONST>
1

>  <SCORE.INTER.POLAR>
-3.37665

>  <SCORE.INTER.ROT>
10

>  <SCORE.INTER.SOLV>
12.9848

>  <SCORE.INTER.VDW>
-38.2725

>  <SCORE.INTER.norm>
-1.74665

>  <SCORE.INTRA>
6.26678

>  <SCORE.INTRA.DIHEDRAL>
6.80204

>  <SCORE.INTRA.DIHEDRAL.0>
18.0451

>  <SCORE.INTRA.POLAR>
0.196815

>  <SCORE.INTRA.POLAR.0>
-0.196815

>  <SCORE.INTRA.REPUL>
0

>  <SCORE.INTRA.REPUL.0>
0

>  <SCORE.INTRA.SOLV>
-0.463785

>  <SCORE.INTRA.SOLV.lig_0>
-14.7906

>  <SCORE.INTRA.VDW>
2.42848

>  <SCORE.INTRA.VDW.0>
-0.411701

>  <SCORE.INTRA.norm>
0.208893

>  <SCORE.RESTR>
0

>  <SCORE.RESTR.CAVITY>
0

>  <SCORE.RESTR.norm>
0

>  <SCORE.SYSTEM>
0

>  <SCORE.SYSTEM.CONST>
0

>  <SCORE.SYSTEM.DIHEDRAL>
0

>  <SCORE.SYSTEM.SOLV>
0

>  <SCORE.SYSTEM.norm>
0

>  <SCORE.heavy>
30

>  <SCORE.norm>
-1.53776

>  <RMSD>
8.777

$$$$
1uts_lig
 OpenBabel11021811413D
libRbt.so/2013.1/901 2013/11/27
 30 33  0  0  0  0  0  0  0  0999 V2000
   -2.8281    6.3593   19.6182 N   0  0  0  0  0  0  0  0  0  0  0  0
   -2.7290    4.2249   18.4051 C   0  0  0  0  0  0  0  0  0  0  0  0
   -5.8377    3.6696   14.4783 C   0  0  0  0  0  0  0  0  0  0  0  0
   -2.7392    4.5589   16.9105 C   0  0  0  0  0  0  0  0  0  0  0  0
   -3.4495    3.5350   16.1986 O   0  0  0  0  0  0  0  0  0  0  0  0
   -1.9216    5.2824   19.1601 C   0  0  0  0  0  0  0  0  0  0  0  0
   -6.7918    3.3223   13.4008 N   0  0  0  0  0  0  0  0  0  0  0  0
   -8.1198    3.0063   13.9904 C   0  0  0  0  0  0  0  0  0  0  0  0
   -8.8035    1.9094   13.1689 C   0  0  0  0  0  0  0  0  0  0  0  0
   -7.9884    0.6750   13.2205 N   0  0  0  0  0  0  0  0  0  0  0  0
   -8.7029   -0.4174   12.4993 C   0  0  0  0  0  0  0  0  0  0  0  0
   -7.7571    0.2947   14.6428 C   0  0  0  0  0  0  0  0  0  0  0  0
   -7.8610   -1.7024   12.5542 C   0  0  0  0  0  0  0  0  0  0  0  0
   -6.9173   -0.9941   14.6990 C   0  0  0  0  0  0  0  0  0  0  0  0
   -7.6304   -2.0839   13.9765 N   0  0  0  0  0  0  0  0  0  0  0  0
   -1.7810    3.9363   12.8391 C   0  0  0  0  0  0  0  0  0  0  0  0
   -1.8842    4.4292    6.4630 N   0  0  0  0  0  0  0  0  0  0  0  0
   -2.9019    3.9872   11.9763 C   0  0  0  0  0  0  0  0  0  0  0  0
   -4.2137    3.8998   12.5140 C   0  0  0  0  0  0  0  0  0  0  0  0
   -4.4047    3.7644   13.9166 C   0  0  0  0  0  0  0  0  0  0  0  0
   -3.2726    3.6969   14.7832 C   0  0  0  0  0  0  0  0  0  0  0  0
   -1.9620    3.7880   14.2395 C   0  0  0  0  0  0  0  0  0  0  0  0
   -0.4872    4.2243    6.5260 C   0  0  0  0  0  0  0  0  0  0  0  0
   -0.0624    4.0464    7.8623 C   0  0  0  0  0  0  0  0  0  0  0  0
   -1.3975    4.0127   10.0487 C   0  0  0  0  0  0  0  0  0  0  0  0
   -2.7056    4.1193   10.5944 C   0  0  0  0  0  0  0  0  0  0  0  0
   -3.8150    4.3531    9.7359 C   0  0  0  0  0  0  0  0  0  0  0  0
   -3.6158    4.4777    8.3344 C   0  0  0  0  0  0  0  0  0  0  0  0
   -2.3003    4.3560    7.7869 C   0  0  0  0  0  0  0  0  0  0  0  0
   -1.2016    4.1253    8.6348 C   0  0  0  0  0  0  0  0  0  0  0  0
  1  6  1  0  0  0  0
  2  4  1  0  0  0  0
  3  7  1  0  0  0  0
  4  5  1  0  0  0  0
  6  2  1  0  0  0  0
  7  8  1  0  0  0  0
  8  9  1  0  0  0  0
  9 10  1  0  0  0  0
 10 11  1  0  0  0  0
 10 12  1  0  0  0  0
 11 13  1  0  0  0  0
 13 15  1  0  0  0  0
 14 12  1  0  0  0  0
 15 14  1  0  0  0  0
 16 18  2  0  0  0  0
 16 22  1  0  0  0  0
 17 23  1  0  0  0  0
 17 29  1  0  0  0  0
 18 19  1  0  0  0  0
 18 26  1  0  0  0  0
 19 20  2  0  0  0  0
 20  3  1  0  0  0  0
 20 21  1  0  0  0  0
 21  5  1  0  0  0  0
 21 22  2  0  0  0  0
 23 24  2  0  0  0  0
 24 30  1  0  0  0  0
 25 26  2  0  0  0  0
 25 30  1  0  0  0  0
 26 27  1  0  0  0  0
 27 28  2  0  0  0  0
 28 29  1  0  0  0  0
 29 30  2  0  0  0  0
M  END
>  <CHROM.1>
-67.78238824,177.59018590,170.34468505,-169.83455480,91.81500279,-145.72405331
62.24690681,176.09993005,8.84334235,17.46168808,-126.76549465,-4.30386784
3.04820915,12.92286094,-2.21985082,-0.66703567,-1.72619111

>  <Name>
1uts_lig

>  <RI>
0

>  <Rbt.Current_Directory>
/home/itssahil/PROJECTS/Mol_Feturizer/New_Systems/rnas/1uts

>  <Rbt.Executable>
rbdock ($Id: //depot/dev/client3/rdock/2013.1/src/exe/rbdock.cxx#4 $)

>  <Rbt.Library>
libRbt.so (2013.1, Build901 2013/11/27)

>  <Rbt.Parameter_File>
/export/apps/rDock/src/rDock_2013.1_src/data/scripts/dock_solv.prm

>  <Rbt.Receptor>
prm/pocket_docking_8.prm

>  <SCORE>
-33.6822

>  <SCORE.INTER>
-34.9664

>  <SCORE.INTER.CONST>
1

>  <SCORE.INTER.POLAR>
-1.90959

>  <SCORE.INTER.ROT>
10

>  <SCORE.INTER.SOLV>
8.98301

>  <SCORE.INTER.VDW>
-30.2067

>  <SCORE.INTER.norm>
-1.16555

>  <SCORE.INTRA>
1.28421

>  <SCORE.INTRA.DIHEDRAL>
-7.94612

>  <SCORE.INTRA.DIHEDRAL.0>
18.0451

>  <SCORE.INTRA.POLAR>
0.196815

>  <SCORE.INTRA.POLAR.0>
-0.196815

>  <SCORE.INTRA.REPUL>
0

>  <SCORE.INTRA.REPUL.0>
0

>  <SCORE.INTRA.SOLV>
-0.298659

>  <SCORE.INTRA.SOLV.lig_0>
-14.7906

>  <SCORE.INTRA.VDW>
4.73742

>  <SCORE.INTRA.VDW.0>
-0.411701

>  <SCORE.INTRA.norm>
0.0428069

>  <SCORE.RESTR>
0

>  <SCORE.RESTR.CAVITY>
0

>  <SCORE.RESTR.norm>
0

>  <SCORE.SYSTEM>
0

>  <SCORE.SYSTEM.CONST>
0

>  <SCORE.SYSTEM.DIHEDRAL>
0

>  <SCORE.SYSTEM.SOLV>
0

>  <SCORE.SYSTEM.norm>
0

>  <SCORE.heavy>
30

>  <SCORE.norm>
-1.12274

>  <RMSD>
8.779

$$$$
1uts_lig
 OpenBabel11021811413D
libRbt.so/2013.1/901 2013/11/27
 30 33  0  0  0  0  0  0  0  0999 V2000
    1.9066   -4.4979   16.8352 N   0  0  0  0  0  0  0  0  0  0  0  0
    0.0316   -3.9966   15.3284 C   0  0  0  0  0  0  0  0  0  0  0  0
   -1.1438    1.1581   14.9548 C   0  0  0  0  0  0  0  0  0  0  0  0
    0.6026   -2.6661   14.8297 C   0  0  0  0  0  0  0  0  0  0  0  0
   -0.1549   -1.5831   15.3894 O   0  0  0  0  0  0  0  0  0  0  0  0
    0.4533   -4.2216   16.7817 C   0  0  0  0  0  0  0  0  0  0  0  0
   -1.9805    1.7942   15.9975 N   0  0  0  0  0  0  0  0  0  0  0  0
   -2.1664    0.8531   17.1336 C   0  0  0  0  0  0  0  0  0  0  0  0
   -2.3173    1.6403   18.4387 C   0  0  0  0  0  0  0  0  0  0  0  0
   -3.5380    2.4748   18.3722 N   0  0  0  0  0  0  0  0  0  0  0  0
   -3.2241    3.7511   17.6675 C   0  0  0  0  0  0  0  0  0  0  0  0
   -4.0245    2.7496   19.7538 C   0  0  0  0  0  0  0  0  0  0  0  0
   -4.4888    4.6223   17.6000 C   0  0  0  0  0  0  0  0  0  0  0  0
   -5.2889    3.6251   19.6875 C   0  0  0  0  0  0  0  0  0  0  0  0
   -4.9752    4.8985   18.9815 N   0  0  0  0  0  0  0  0  0  0  0  0
    2.8756    0.3627   16.5125 C   0  0  0  0  0  0  0  0  0  0  0  0
    6.0595    5.8010   17.6041 N   0  0  0  0  0  0  0  0  0  0  0  0
    2.4451    1.6943   16.3010 C   0  0  0  0  0  0  0  0  0  0  0  0
    1.1415    1.9450   15.7955 C   0  0  0  0  0  0  0  0  0  0  0  0
    0.2665    0.8627   15.5042 C   0  0  0  0  0  0  0  0  0  0  0  0
    0.7085   -0.4798   15.7028 C   0  0  0  0  0  0  0  0  0  0  0  0
    2.0133   -0.7245   16.2119 C   0  0  0  0  0  0  0  0  0  0  0  0
    6.6992    5.1375   18.6756 C   0  0  0  0  0  0  0  0  0  0  0  0
    6.1315    3.8611   18.8906 C   0  0  0  0  0  0  0  0  0  0  0  0
    4.2415    2.6452   17.6604 C   0  0  0  0  0  0  0  0  0  0  0  0
    3.3139    2.7562   16.5891 C   0  0  0  0  0  0  0  0  0  0  0  0
    3.2738    3.9427   15.8063 C   0  0  0  0  0  0  0  0  0  0  0  0
    4.1614    5.0148   16.0936 C   0  0  0  0  0  0  0  0  0  0  0  0
    5.1029    4.8946   17.1632 C   0  0  0  0  0  0  0  0  0  0  0  0
    5.1436    3.7217   17.9391 C   0  0  0  0  0  0  0  0  0  0  0  0
  1  6  1  0  0  0  0
  2  4  1  0  0  0  0
  3  7  1  0  0  0  0
  4  5  1  0  0  0  0
  6  2  1  0  0  0  0
  7  8  1  0  0  0  0
  8  9  1  0  0  0  0
  9 10  1  0  0  0  0
 10 11  1  0  0  0  0
 10 12  1  0  0  0  0
 11 13  1  0  0  0  0
 13 15  1  0  0  0  0
 14 12  1  0  0  0  0
 15 14  1  0  0  0  0
 16 18  2  0  0  0  0
 16 22  1  0  0  0  0
 17 23  1  0  0  0  0
 17 29  1  0  0  0  0
 18 19  1  0  0  0  0
 18 26  1  0  0  0  0
 19 20  2  0  0  0  0
 20  3  1  0  0  0  0
 20 21  1  0  0  0  0
 21  5  1  0  0  0  0
 21 22  2  0  0  0  0
 23 24  2  0  0  0  0
 24 30  1  0  0  0  0
 25 26  2  0  0  0  0
 25 30  1  0  0  0  0
 26 27  1  0  0  0  0
 27 28  2  0  0  0  0
 28 29  1  0  0  0  0
 29 30  2  0  0  0  0
M  END
>  <CHROM.1>
-178.82964261,-75.34150402,-63.31088155,142.90482798,-70.05232842,149.40603563
63.16726131,-83.97393482,-33.04587548,-68.90452512,142.66581592,0.62030892
1.67093110,17.02095680,-2.95342071,0.11309145,0.29239104

>  <Name>
1uts_lig

>  <RI>
0

>  <Rbt.Current_Directory>
/home/itssahil/PROJECTS/Mol_Feturizer/New_Systems/rnas/1uts

>  <Rbt.Executable>
rbdock ($Id: //depot/dev/client3/rdock/2013.1/src/exe/rbdock.cxx#4 $)

>  <Rbt.Library>
libRbt.so (2013.1, Build901 2013/11/27)

>  <Rbt.Parameter_File>
/export/apps/rDock/src/rDock_2013.1_src/data/scripts/dock_solv.prm

>  <Rbt.Receptor>
prm/pocket_docking_7.prm

>  <SCORE>
-24.2611

>  <SCORE.INTER>
-25.4327

>  <SCORE.INTER.CONST>
1

>  <SCORE.INTER.POLAR>
-2.10038

>  <SCORE.INTER.ROT>
10

>  <SCORE.INTER.SOLV>
7.84422

>  <SCORE.INTER.VDW>
-22.8353

>  <SCORE.INTER.norm>
-0.847756

>  <SCORE.INTRA>
1.17157

>  <SCORE.INTRA.DIHEDRAL>
-4.81182

>  <SCORE.INTRA.DIHEDRAL.0>
18.0451

>  <SCORE.INTRA.POLAR>
0.196815

>  <SCORE.INTRA.POLAR.0>
-0.196815

>  <SCORE.INTRA.REPUL>
0

>  <SCORE.INTRA.REPUL.0>
0

>  <SCORE.INTRA.SOLV>
0.0765714

>  <SCORE.INTRA.SOLV.lig_0>
-14.7906

>  <SCORE.INTRA.VDW>
2.87002

>  <SCORE.INTRA.VDW.0>
-0.411701

>  <SCORE.INTRA.norm>
0.0390523

>  <SCORE.RESTR>
0

>  <SCORE.RESTR.CAVITY>
0

>  <SCORE.RESTR.norm>
0

>  <SCORE.SYSTEM>
0

>  <SCORE.SYSTEM.CONST>
0

>  <SCORE.SYSTEM.DIHEDRAL>
0

>  <SCORE.SYSTEM.SOLV>
0

>  <SCORE.SYSTEM.norm>
0

>  <SCORE.heavy>
30

>  <SCORE.norm>
-0.808703

>  <RMSD>
8.789

$$$$
1uts_lig
 OpenBabel11021811413D
libRbt.so/2013.1/901 2013/11/27
 30 33  0  0  0  0  0  0  0  0999 V2000
    6.2876    6.6317   14.1638 N   0  0  0  0  0  0  0  0  0  0  0  0
    5.0971    5.2606   15.8191 C   0  0  0  0  0  0  0  0  0  0  0  0
   -0.0092    3.9559   15.1087 C   0  0  0  0  0  0  0  0  0  0  0  0
    3.8768    5.1169   14.9051 C   0  0  0  0  0  0  0  0  0  0  0  0
    2.6978    4.9537   15.7071 O   0  0  0  0  0  0  0  0  0  0  0  0
    6.3614    5.3908   14.9678 C   0  0  0  0  0  0  0  0  0  0  0  0
   -0.9701    3.1813   14.2910 N   0  0  0  0  0  0  0  0  0  0  0  0
   -1.9691    4.1017   13.6861 C   0  0  0  0  0  0  0  0  0  0  0  0
   -1.4662    4.5889   12.3240 C   0  0  0  0  0  0  0  0  0  0  0  0
   -2.4910    5.4575   11.7025 N   0  0  0  0  0  0  0  0  0  0  0  0
   -3.2189    4.6870   10.6535 C   0  0  0  0  0  0  0  0  0  0  0  0
   -1.8300    6.6523   11.1056 C   0  0  0  0  0  0  0  0  0  0  0  0
   -4.2818    5.5872   10.0030 C   0  0  0  0  0  0  0  0  0  0  0  0
   -2.8929    7.5527   10.4505 C   0  0  0  0  0  0  0  0  0  0  0  0
   -3.6211    6.7818    9.4047 N   0  0  0  0  0  0  0  0  0  0  0  0
    3.1618    1.3144   16.5858 C   0  0  0  0  0  0  0  0  0  0  0  0
    0.7161   -4.6639   17.0012 N   0  0  0  0  0  0  0  0  0  0  0  0
    1.8692    0.7990   16.3274 C   0  0  0  0  0  0  0  0  0  0  0  0
    0.8461    1.6606   15.8493 C   0  0  0  0  0  0  0  0  0  0  0  0
    1.1170    3.0386   15.6265 C   0  0  0  0  0  0  0  0  0  0  0  0
    2.4167    3.5596   15.9033 C   0  0  0  0  0  0  0  0  0  0  0  0
    3.4377    2.6918   16.3788 C   0  0  0  0  0  0  0  0  0  0  0  0
   -0.1758   -4.7901   15.9121 C   0  0  0  0  0  0  0  0  0  0  0  0
   -0.3442   -3.5522   15.2510 C   0  0  0  0  0  0  0  0  0  0  0  0
    0.7052   -1.2596   15.7057 C   0  0  0  0  0  0  0  0  0  0  0  0
    1.6093   -0.5604   16.5508 C   0  0  0  0  0  0  0  0  0  0  0  0
    2.2543   -1.2436   17.6182 C   0  0  0  0  0  0  0  0  0  0  0  0
    1.9970   -2.6238   17.8380 C   0  0  0  0  0  0  0  0  0  0  0  0
    1.0976   -3.3278   16.9775 C   0  0  0  0  0  0  0  0  0  0  0  0
    0.4580   -2.6535   15.9213 C   0  0  0  0  0  0  0  0  0  0  0  0
  1  6  1  0  0  0  0
  2  4  1  0  0  0  0
  3  7  1  0  0  0  0
  4  5  1  0  0  0  0
  6  2  1  0  0  0  0
  7  8  1  0  0  0  0
  8  9  1  0  0  0  0
  9 10  1  0  0  0  0
 10 11  1  0  0  0  0
 10 12  1  0  0  0  0
 11 13  1  0  0  0  0
 13 15  1  0  0  0  0
 14 12  1  0  0  0  0
 15 14  1  0  0  0  0
 16 18  2  0  0  0  0
 16 22  1  0  0  0  0
 17 23  1  0  0  0  0
 17 29  1  0  0  0  0
 18 19  1  0  0  0  0
 18 26  1  0  0  0  0
 19 20  2  0  0  0  0
 20  3  1  0  0  0  0
 20 21  1  0  0  0  0
 21  5  1  0  0  0  0
 21 22  2  0  0  0  0
 23 24  2  0  0  0  0
 24 30  1  0  0  0  0
 25 26  2  0  0  0  0
 25 30  1  0  0  0  0
 26 27  1  0  0  0  0
 27 28  2  0  0  0  0
 28 29  1  0  0  0  0
 29 30  2  0  0  0  0
M  END
>  <CHROM.1>
155.85913800,178.24076199,-174.24341543,-93.25785991,63.51813785,89.85186438
177.56974303,-102.39585691,-145.64238348,-28.99262160,-128.66357842,0.73497543
2.46354173,14.54958148,-1.93274929,0.47504082,2.74216846

>  <Name>
1uts_lig

>  <RI>
0

>  <Rbt.Current_Directory>
/home/itssahil/PROJECTS/Mol_Feturizer/New_Systems/rnas/1uts

>  <Rbt.Executable>
rbdock ($Id: //depot/dev/client3/rdock/2013.1/src/exe/rbdock.cxx#4 $)

>  <Rbt.Library>
libRbt.so (2013.1, Build901 2013/11/27)

>  <Rbt.Parameter_File>
/export/apps/rDock/src/rDock_2013.1_src/data/scripts/dock_solv.prm

>  <Rbt.Receptor>
prm/pocket_docking_6.prm

>  <SCORE>
-42.9481

>  <SCORE.INTER>
-45.1155

>  <SCORE.INTER.CONST>
1

>  <SCORE.INTER.POLAR>
-3.10197

>  <SCORE.INTER.ROT>
10

>  <SCORE.INTER.SOLV>
12.5849

>  <SCORE.INTER.VDW>
-34.1988

>  <SCORE.INTER.norm>
-1.50385

>  <SCORE.INTRA>
1.83087

>  <SCORE.INTRA.DIHEDRAL>
-2.50161

>  <SCORE.INTRA.DIHEDRAL.0>
18.0451

>  <SCORE.INTRA.POLAR>
0.196815

>  <SCORE.INTRA.POLAR.0>
-0.196815

>  <SCORE.INTRA.REPUL>
0

>  <SCORE.INTRA.REPUL.0>
0

>  <SCORE.INTRA.SOLV>
-0.55478

>  <SCORE.INTRA.SOLV.lig_0>
-14.7906

>  <SCORE.INTRA.VDW>
2.68989

>  <SCORE.INTRA.VDW.0>
-0.411701

>  <SCORE.INTRA.norm>
0.0610289

>  <SCORE.RESTR>
0.336586

>  <SCORE.RESTR.CAVITY>
0.336586

>  <SCORE.RESTR.norm>
0.0112195

>  <SCORE.SYSTEM>
0

>  <SCORE.SYSTEM.CONST>
0

>  <SCORE.SYSTEM.DIHEDRAL>
0

>  <SCORE.SYSTEM.SOLV>
0

>  <SCORE.SYSTEM.norm>
0

>  <SCORE.heavy>
30

>  <SCORE.norm>
-1.4316

>  <RMSD>
8.808

$$$$
1uts_lig
 OpenBabel11021811413D
libRbt.so/2013.1/901 2013/11/27
 30 33  0  0  0  0  0  0  0  0999 V2000
    3.9349    7.0639   19.4735 N   0  0  0  0  0  0  0  0  0  0  0  0
    3.5238    4.9667   18.2610 C   0  0  0  0  0  0  0  0  0  0  0  0
    1.7230    2.7392   15.7806 C   0  0  0  0  0  0  0  0  0  0  0  0
    4.4648    5.2736   17.0924 C   0  0  0  0  0  0  0  0  0  0  0  0
    4.1126    4.4525   15.9692 O   0  0  0  0  0  0  0  0  0  0  0  0
    4.0785    5.5921   19.5422 C   0  0  0  0  0  0  0  0  0  0  0  0
    0.6558    2.2577   16.6868 N   0  0  0  0  0  0  0  0  0  0  0  0
   -0.5712    1.9593   15.9016 C   0  0  0  0  0  0  0  0  0  0  0  0
   -1.2433    3.2673   15.4741 C   0  0  0  0  0  0  0  0  0  0  0  0
   -2.5090    2.9633   14.7693 N   0  0  0  0  0  0  0  0  0  0  0  0
   -2.8664    4.1083   13.8832 C   0  0  0  0  0  0  0  0  0  0  0  0
   -3.5868    2.7241   15.7703 C   0  0  0  0  0  0  0  0  0  0  0  0
   -4.1826    3.7977   13.1524 C   0  0  0  0  0  0  0  0  0  0  0  0
   -4.9063    2.4167   15.0395 C   0  0  0  0  0  0  0  0  0  0  0  0
   -5.2613    3.5596   14.1530 N   0  0  0  0  0  0  0  0  0  0  0  0
    5.6043    1.1703   17.0802 C   0  0  0  0  0  0  0  0  0  0  0  0
    4.7582   -5.0971   18.5127 N   0  0  0  0  0  0  0  0  0  0  0  0
    4.4761    0.3178   17.0203 C   0  0  0  0  0  0  0  0  0  0  0  0
    3.2213    0.8327   16.5987 C   0  0  0  0  0  0  0  0  0  0  0  0
    3.0953    2.2012   16.2337 C   0  0  0  0  0  0  0  0  0  0  0  0
    4.2305    3.0629   16.3104 C   0  0  0  0  0  0  0  0  0  0  0  0
    5.4848    2.5412   16.7302 C   0  0  0  0  0  0  0  0  0  0  0  0
    3.4476   -5.2041   19.0312 C   0  0  0  0  0  0  0  0  0  0  0  0
    2.7680   -3.9678   18.9456 C   0  0  0  0  0  0  0  0  0  0  0  0
    3.5251   -1.7070   18.0078 C   0  0  0  0  0  0  0  0  0  0  0  0
    4.6077   -1.0300   17.3831 C   0  0  0  0  0  0  0  0  0  0  0  0
    5.8209   -1.7238   17.1208 C   0  0  0  0  0  0  0  0  0  0  0  0
    5.9497   -3.0926   17.4807 C   0  0  0  0  0  0  0  0  0  0  0  0
    4.8540   -3.7747   18.0964 C   0  0  0  0  0  0  0  0  0  0  0  0
    3.6531   -3.0897   18.3573 C   0  0  0  0  0  0  0  0  0  0  0  0
  1  6  1  0  0  0  0
  2  4  1  0  0  0  0
  3  7  1  0  0  0  0
  4  5  1  0  0  0  0
  6  2  1  0  0  0  0
  7  8  1  0  0  0  0
  8  9  1  0  0  0  0
  9 10  1  0  0  0  0
 10 11  1  0  0  0  0
 10 12  1  0  0  0  0
 11 13  1  0  0  0  0
 13 15  1  0  0  0  0
 14 12  1  0  0  0  0
 15 14  1  0  0  0  0
 16 18  2  0  0  0  0
 16 22  1  0  0  0  0
 17 23  1  0  0  0  0
 17 29  1  0  0  0  0
 18 19  1  0  0  0  0
 18 26  1  0  0  0  0
 19 20  2  0  0  0  0
 20  3  1  0  0  0  0
 20 21  1  0  0  0  0
 21  5  1  0  0  0  0
 21 22  2  0  0  0  0
 23 24  2  0  0  0  0
 24 30  1  0  0  0  0
 25 26  2  0  0  0  0
 25 30  1  0  0  0  0
 26 27  1  0  0  0  0
 27 28  2  0  0  0  0
 28 29  1  0  0  0  0
 29 30  2  0  0  0  0
M  END
>  <CHROM.1>
-69.00642315,167.30961324,-142.70444613,-60.15386371,71.21571163,-73.87491485
-176.35998988,-156.60162325,146.57018418,45.09544344,120.19595308,1.96362146
1.44941540,16.76905709,-2.48669169,0.35601454,3.09257468

>  <Name>
1uts_lig

>  <RI>
0

>  <Rbt.Current_Directory>
/home/itssahil/PROJECTS/Mol_Feturizer/New_Systems/rnas/1uts

>  <Rbt.Executable>
rbdock ($Id: //depot/dev/client3/rdock/2013.1/src/exe/rbdock.cxx#4 $)

>  <Rbt.Library>
libRbt.so (2013.1, Build901 2013/11/27)

>  <Rbt.Parameter_File>
/export/apps/rDock/src/rDock_2013.1_src/data/scripts/dock_solv.prm

>  <Rbt.Receptor>
prm/pocket_docking_3.prm

>  <SCORE>
-18.1606

>  <SCORE.INTER>
-18.5652

>  <SCORE.INTER.CONST>
1

>  <SCORE.INTER.POLAR>
-0.632456

>  <SCORE.INTER.ROT>
10

>  <SCORE.INTER.SOLV>
7.30101

>  <SCORE.INTER.VDW>
-22.9689

>  <SCORE.INTER.norm>
-0.618839

>  <SCORE.INTRA>
0.032527

>  <SCORE.INTRA.DIHEDRAL>
-6.9435

>  <SCORE.INTRA.DIHEDRAL.0>
18.0451

>  <SCORE.INTRA.POLAR>
0.196815

>  <SCORE.INTRA.POLAR.0>
-0.196815

>  <SCORE.INTRA.REPUL>
0

>  <SCORE.INTRA.REPUL.0>
0

>  <SCORE.INTRA.SOLV>
-0.556796

>  <SCORE.INTRA.SOLV.lig_0>
-14.7906

>  <SCORE.INTRA.VDW>
3.1135

>  <SCORE.INTRA.VDW.0>
-0.411701

>  <SCORE.INTRA.norm>
0.00108423

>  <SCORE.RESTR>
0.372055

>  <SCORE.RESTR.CAVITY>
0.372055

>  <SCORE.RESTR.norm>
0.0124018

>  <SCORE.SYSTEM>
0

>  <SCORE.SYSTEM.CONST>
0

>  <SCORE.SYSTEM.DIHEDRAL>
0

>  <SCORE.SYSTEM.SOLV>
0

>  <SCORE.SYSTEM.norm>
0

>  <SCORE.heavy>
30

>  <SCORE.norm>
-0.605352

>  <RMSD>
8.848

$$$$
1uts_lig
 OpenBabel11021811413D
libRbt.so/2013.1/901 2013/11/27
 30 33  0  0  0  0  0  0  0  0999 V2000
    5.9110    6.6014   13.9940 N   0  0  0  0  0  0  0  0  0  0  0  0
    5.9020    5.1186   15.9532 C   0  0  0  0  0  0  0  0  0  0  0  0
    1.3996    3.1528   17.0165 C   0  0  0  0  0  0  0  0  0  0  0  0
    5.4772    3.6904   16.3067 C   0  0  0  0  0  0  0  0  0  0  0  0
    4.2870    3.7321   17.1076 O   0  0  0  0  0  0  0  0  0  0  0  0
    5.1107    5.6013   14.7362 C   0  0  0  0  0  0  0  0  0  0  0  0
    1.3820    3.3882   15.5549 N   0  0  0  0  0  0  0  0  0  0  0  0
    0.1807    4.1851   15.1903 C   0  0  0  0  0  0  0  0  0  0  0  0
   -1.0252    3.2562   15.0217 C   0  0  0  0  0  0  0  0  0  0  0  0
   -2.0554    3.9306   14.2003 N   0  0  0  0  0  0  0  0  0  0  0  0
   -3.3105    3.1255   14.2261 C   0  0  0  0  0  0  0  0  0  0  0  0
   -1.5578    4.0734   12.8029 C   0  0  0  0  0  0  0  0  0  0  0  0
   -4.3818    3.8211   13.3707 C   0  0  0  0  0  0  0  0  0  0  0  0
   -2.6313    4.7664   11.9445 C   0  0  0  0  0  0  0  0  0  0  0  0
   -3.8851    3.9631   11.9727 N   0  0  0  0  0  0  0  0  0  0  0  0
    4.3498    0.0792   18.0479 C   0  0  0  0  0  0  0  0  0  0  0  0
    1.3350   -5.3949   19.5608 N   0  0  0  0  0  0  0  0  0  0  0  0
    2.9699   -0.2355   18.0329 C   0  0  0  0  0  0  0  0  0  0  0  0
    2.0192    0.7653   17.6983 C   0  0  0  0  0  0  0  0  0  0  0  0
    2.4493    2.0816   17.3752 C   0  0  0  0  0  0  0  0  0  0  0  0
    3.8400    2.4010   17.4069 C   0  0  0  0  0  0  0  0  0  0  0  0
    4.7873    1.3943   17.7396 C   0  0  0  0  0  0  0  0  0  0  0  0
    1.7660   -5.3241   20.9050 C   0  0  0  0  0  0  0  0  0  0  0  0
    2.3784   -4.0791   21.1743 C   0  0  0  0  0  0  0  0  0  0  0  0
    2.7617   -2.0451   19.6643 C   0  0  0  0  0  0  0  0  0  0  0  0
    2.5533   -1.5351   18.3540 C   0  0  0  0  0  0  0  0  0  0  0  0
    1.9157   -2.3424   17.3722 C   0  0  0  0  0  0  0  0  0  0  0  0
    1.4856   -3.6562   17.7016 C   0  0  0  0  0  0  0  0  0  0  0  0
    1.6842   -4.1614   19.0246 C   0  0  0  0  0  0  0  0  0  0  0  0
    2.3154   -3.3644   19.9971 C   0  0  0  0  0  0  0  0  0  0  0  0
  1  6  1  0  0  0  0
  2  4  1  0  0  0  0
  3  7  1  0  0  0  0
  4  5  1  0  0  0  0
  6  2  1  0  0  0  0
  7  8  1  0  0  0  0
  8  9  1  0  0  0  0
  9 10  1  0  0  0  0
 10 11  1  0  0  0  0
 10 12  1  0  0  0  0
 11 13  1  0  0  0  0
 13 15  1  0  0  0  0
 14 12  1  0  0  0  0
 15 14  1  0  0  0  0
 16 18  2  0  0  0  0
 16 22  1  0  0  0  0
 17 23  1  0  0  0  0
 17 29  1  0  0  0  0
 18 19  1  0  0  0  0
 18 26  1  0  0  0  0
 19 20  2  0  0  0  0
 20  3  1  0  0  0  0
 20 21  1  0  0  0  0
 21  5  1  0  0  0  0
 21 22  2  0  0  0  0
 23 24  2  0  0  0  0
 24 30  1  0  0  0  0
 25 26  2  0  0  0  0
 25 30  1  0  0  0  0
 26 27  1  0  0  0  0
 27 28  2  0  0  0  0
 28 29  1  0  0  0  0
 29 30  2  0  0  0  0
M  END
>  <CHROM.1>
49.43875443,-83.21300398,167.56677020,177.71944698,-151.96935606,-84.02153863
-159.27355706,-170.66056091,64.88684519,-103.96982705,-139.31792640,1.60433928
1.41969457,16.50637446,-1.87022814,0.32793606,2.60921798

>  <Name>
1uts_lig

>  <RI>
0

>  <Rbt.Current_Directory>
/home/itssahil/PROJECTS/Mol_Feturizer/New_Systems/rnas/1uts

>  <Rbt.Executable>
rbdock ($Id: //depot/dev/client3/rdock/2013.1/src/exe/rbdock.cxx#4 $)

>  <Rbt.Library>
libRbt.so (2013.1, Build901 2013/11/27)

>  <Rbt.Parameter_File>
/export/apps/rDock/src/rDock_2013.1_src/data/scripts/dock_solv.prm

>  <Rbt.Receptor>
prm/pocket_docking_8.prm

>  <SCORE>
-33.6718

>  <SCORE.INTER>
-33.7899

>  <SCORE.INTER.CONST>
1

>  <SCORE.INTER.POLAR>
-3.33171

>  <SCORE.INTER.ROT>
10

>  <SCORE.INTER.SOLV>
9.74342

>  <SCORE.INTER.VDW>
-24.9354

>  <SCORE.INTER.norm>
-1.12633

>  <SCORE.INTRA>
0.11807

>  <SCORE.INTRA.DIHEDRAL>
-3.5167

>  <SCORE.INTRA.DIHEDRAL.0>
18.0451

>  <SCORE.INTRA.POLAR>
0.196815

>  <SCORE.INTRA.POLAR.0>
-0.196815

>  <SCORE.INTRA.REPUL>
0

>  <SCORE.INTRA.REPUL.0>
0

>  <SCORE.INTRA.SOLV>
-0.454271

>  <SCORE.INTRA.SOLV.lig_0>
-14.7906

>  <SCORE.INTRA.VDW>
1.43438

>  <SCORE.INTRA.VDW.0>
-0.411701

>  <SCORE.INTRA.norm>
0.00393566

>  <SCORE.RESTR>
0

>  <SCORE.RESTR.CAVITY>
0

>  <SCORE.RESTR.norm>
0

>  <SCORE.SYSTEM>
0

>  <SCORE.SYSTEM.CONST>
0

>  <SCORE.SYSTEM.DIHEDRAL>
0

>  <SCORE.SYSTEM.SOLV>
0

>  <SCORE.SYSTEM.norm>
0

>  <SCORE.heavy>
30

>  <SCORE.norm>
-1.12239

>  <RMSD>
8.866

$$$$
1uts_lig
 OpenBabel11021811413D
libRbt.so/2013.1/901 2013/11/27
 30 33  0  0  0  0  0  0  0  0999 V2000
    1.2816    3.7140   20.5461 N   0  0  0  0  0  0  0  0  0  0  0  0
    0.8248    5.2668   18.6976 C   0  0  0  0  0  0  0  0  0  0  0  0
    2.3077    4.0680   15.8626 C   0  0  0  0  0  0  0  0  0  0  0  0
    2.0519    6.1206   19.0298 C   0  0  0  0  0  0  0  0  0  0  0  0
    3.0758    5.8833   18.0525 O   0  0  0  0  0  0  0  0  0  0  0  0
    0.2750    4.6403   19.9803 C   0  0  0  0  0  0  0  0  0  0  0  0
    1.0328    3.3169   15.8111 N   0  0  0  0  0  0  0  0  0  0  0  0
   -0.0063    4.1395   15.1369 C   0  0  0  0  0  0  0  0  0  0  0  0
   -1.3217    3.3582   15.0688 C   0  0  0  0  0  0  0  0  0  0  0  0
   -2.2382    4.0188   14.1124 N   0  0  0  0  0  0  0  0  0  0  0  0
   -3.5160    3.2529   14.0458 C   0  0  0  0  0  0  0  0  0  0  0  0
   -1.5946    4.0746   12.7694 C   0  0  0  0  0  0  0  0  0  0  0  0
   -4.4691    3.9341   13.0503 C   0  0  0  0  0  0  0  0  0  0  0  0
   -2.5496    4.7532   11.7709 C   0  0  0  0  0  0  0  0  0  0  0  0
   -3.8264    3.9890   11.7067 N   0  0  0  0  0  0  0  0  0  0  0  0
    4.7135    2.7087   19.2653 C   0  0  0  0  0  0  0  0  0  0  0  0
    5.7628   -3.6313   18.6046 N   0  0  0  0  0  0  0  0  0  0  0  0
    4.3505    1.8003   18.2424 C   0  0  0  0  0  0  0  0  0  0  0  0
    3.5704    2.2472   17.1428 C   0  0  0  0  0  0  0  0  0  0  0  0
    3.1555    3.6050   17.0646 C   0  0  0  0  0  0  0  0  0  0  0  0
    3.5089    4.5156   18.1053 C   0  0  0  0  0  0  0  0  0  0  0  0
    4.2925    4.0632   19.2021 C   0  0  0  0  0  0  0  0  0  0  0  0
    4.5019   -4.1123   19.0245 C   0  0  0  0  0  0  0  0  0  0  0  0
    3.5767   -3.0525   19.1609 C   0  0  0  0  0  0  0  0  0  0  0  0
    3.8438   -0.5385   18.7453 C   0  0  0  0  0  0  0  0  0  0  0  0
    4.7620    0.4627   18.3272 C   0  0  0  0  0  0  0  0  0  0  0  0
    6.0959    0.1044   17.9885 C   0  0  0  0  0  0  0  0  0  0  0  0
    6.5091   -1.2531   18.0659 C   0  0  0  0  0  0  0  0  0  0  0  0
    5.5791   -2.2600   18.4736 C   0  0  0  0  0  0  0  0  0  0  0  0
    4.2593   -1.9073   18.8096 C   0  0  0  0  0  0  0  0  0  0  0  0
  1  6  1  0  0  0  0
  2  4  1  0  0  0  0
  3  7  1  0  0  0  0
  4  5  1  0  0  0  0
  6  2  1  0  0  0  0
  7  8  1  0  0  0  0
  8  9  1  0  0  0  0
  9 10  1  0  0  0  0
 10 11  1  0  0  0  0
 10 12  1  0  0  0  0
 11 13  1  0  0  0  0
 13 15  1  0  0  0  0
 14 12  1  0  0  0  0
 15 14  1  0  0  0  0
 16 18  2  0  0  0  0
 16 22  1  0  0  0  0
 17 23  1  0  0  0  0
 17 29  1  0  0  0  0
 18 19  1  0  0  0  0
 18 26  1  0  0  0  0
 19 20  2  0  0  0  0
 20  3  1  0  0  0  0
 20 21  1  0  0  0  0
 21  5  1  0  0  0  0
 21 22  2  0  0  0  0
 23 24  2  0  0  0  0
 24 30  1  0  0  0  0
 25 26  2  0  0  0  0
 25 30  1  0  0  0  0
 26 27  1  0  0  0  0
 27 28  2  0  0  0  0
 28 29  1  0  0  0  0
 29 30  2  0  0  0  0
M  END
>  <CHROM.1>
-167.20592688,136.86133083,153.00243566,-63.34806906,-63.96794987,179.37328992
-165.71676633,179.82926154,102.14126695,60.54332527,107.96429069,1.84270229
2.34935991,16.99466402,-0.31854928,-0.73295476,0.35544697

>  <Name>
1uts_lig

>  <RI>
0

>  <Rbt.Current_Directory>
/home/itssahil/PROJECTS/Mol_Feturizer/New_Systems/rnas/1uts

>  <Rbt.Executable>
rbdock ($Id: //depot/dev/client3/rdock/2013.1/src/exe/rbdock.cxx#4 $)

>  <Rbt.Library>
libRbt.so (2013.1, Build901 2013/11/27)

>  <Rbt.Parameter_File>
/export/apps/rDock/src/rDock_2013.1_src/data/scripts/dock_solv.prm

>  <Rbt.Receptor>
prm/pocket_docking_2.prm

>  <SCORE>
-12.737

>  <SCORE.INTER>
-13.3164

>  <SCORE.INTER.CONST>
1

>  <SCORE.INTER.POLAR>
-1.04636

>  <SCORE.INTER.ROT>
10

>  <SCORE.INTER.SOLV>
6.63534

>  <SCORE.INTER.VDW>
-17.8682

>  <SCORE.INTER.norm>
-0.443879

>  <SCORE.INTRA>
-0.2548

>  <SCORE.INTRA.DIHEDRAL>
-1.11132

>  <SCORE.INTRA.DIHEDRAL.0>
18.0451

>  <SCORE.INTRA.POLAR>
0.196815

>  <SCORE.INTRA.POLAR.0>
-0.196815

>  <SCORE.INTRA.REPUL>
0

>  <SCORE.INTRA.REPUL.0>
0

>  <SCORE.INTRA.SOLV>
0.0566547

>  <SCORE.INTRA.SOLV.lig_0>
-14.7906

>  <SCORE.INTRA.VDW>
-0.396641

>  <SCORE.INTRA.VDW.0>
-0.411701

>  <SCORE.INTRA.norm>
-0.00849333

>  <SCORE.RESTR>
0.834214

>  <SCORE.RESTR.CAVITY>
0.834214

>  <SCORE.RESTR.norm>
0.0278071

>  <SCORE.SYSTEM>
0

>  <SCORE.SYSTEM.CONST>
0

>  <SCORE.SYSTEM.DIHEDRAL>
0

>  <SCORE.SYSTEM.SOLV>
0

>  <SCORE.SYSTEM.norm>
0

>  <SCORE.heavy>
30

>  <SCORE.norm>
-0.424566

>  <RMSD>
8.905

$$$$
1uts_lig
 OpenBabel11021811413D
libRbt.so/2013.1/901 2013/11/27
 30 33  0  0  0  0  0  0  0  0999 V2000
   -1.2952    0.2543   20.3096 N   0  0  0  0  0  0  0  0  0  0  0  0
   -2.2435    2.1428   19.0560 C   0  0  0  0  0  0  0  0  0  0  0  0
   -4.7849    3.6559   15.9260 C   0  0  0  0  0  0  0  0  0  0  0  0
   -2.2557    2.8430   17.6941 C   0  0  0  0  0  0  0  0  0  0  0  0
   -2.5511    1.8838   16.6682 O   0  0  0  0  0  0  0  0  0  0  0  0
   -1.2122    1.0130   19.0412 C   0  0  0  0  0  0  0  0  0  0  0  0
   -6.0133    3.0027   15.4197 N   0  0  0  0  0  0  0  0  0  0  0  0
   -6.6437    3.8587   14.3801 C   0  0  0  0  0  0  0  0  0  0  0  0
   -7.3391    2.9792   13.3368 C   0  0  0  0  0  0  0  0  0  0  0  0
   -8.4973    2.2992   13.9589 N   0  0  0  0  0  0  0  0  0  0  0  0
   -8.7598    1.0184   13.2417 C   0  0  0  0  0  0  0  0  0  0  0  0
   -9.6902    3.1896   13.8868 C   0  0  0  0  0  0  0  0  0  0  0  0
   -9.9648    0.3110   13.8827 C   0  0  0  0  0  0  0  0  0  0  0  0
  -10.8984    2.4808   14.5251 C   0  0  0  0  0  0  0  0  0  0  0  0
  -11.1585    1.2005   13.8098 N   0  0  0  0  0  0  0  0  0  0  0  0
   -1.4366    2.8816   13.2050 C   0  0  0  0  0  0  0  0  0  0  0  0
   -2.6490    6.0184    7.6702 N   0  0  0  0  0  0  0  0  0  0  0  0
   -2.4996    3.7254   12.8032 C   0  0  0  0  0  0  0  0  0  0  0  0
   -3.5817    3.9717   13.6896 C   0  0  0  0  0  0  0  0  0  0  0  0
   -3.5992    3.3759   14.9806 C   0  0  0  0  0  0  0  0  0  0  0  0
   -2.5344    2.5124   15.3775 C   0  0  0  0  0  0  0  0  0  0  0  0
   -1.4523    2.2719   14.4872 C   0  0  0  0  0  0  0  0  0  0  0  0
   -3.9427    5.5722    7.3169 C   0  0  0  0  0  0  0  0  0  0  0  0
   -4.5110    4.7983    8.3541 C   0  0  0  0  0  0  0  0  0  0  0  0
   -3.5902    4.1598   10.6581 C   0  0  0  0  0  0  0  0  0  0  0  0
   -2.4761    4.3082   11.5283 C   0  0  0  0  0  0  0  0  0  0  0  0
   -1.3413    5.0541   11.1061 C   0  0  0  0  0  0  0  0  0  0  0  0
   -1.3225    5.6520    9.8171 C   0  0  0  0  0  0  0  0  0  0  0  0
   -2.4506    5.5127    8.9493 C   0  0  0  0  0  0  0  0  0  0  0  0
   -3.5739    4.7746    9.3650 C   0  0  0  0  0  0  0  0  0  0  0  0
  1  6  1  0  0  0  0
  2  4  1  0  0  0  0
  3  7  1  0  0  0  0
  4  5  1  0  0  0  0
  6  2  1  0  0  0  0
  7  8  1  0  0  0  0
  8  9  1  0  0  0  0
  9 10  1  0  0  0  0
 10 11  1  0  0  0  0
 10 12  1  0  0  0  0
 11 13  1  0  0  0  0
 13 15  1  0  0  0  0
 14 12  1  0  0  0  0
 15 14  1  0  0  0  0
 16 18  2  0  0  0  0
 16 22  1  0  0  0  0
 17 23  1  0  0  0  0
 17 29  1  0  0  0  0
 18 19  1  0  0  0  0
 18 26  1  0  0  0  0
 19 20  2  0  0  0  0
 20  3  1  0  0  0  0
 20 21  1  0  0  0  0
 21  5  1  0  0  0  0
 21 22  2  0  0  0  0
 23 24  2  0  0  0  0
 24 30  1  0  0  0  0
 25 26  2  0  0  0  0
 25 30  1  0  0  0  0
 26 27  1  0  0  0  0
 27 28  2  0  0  0  0
 28 29  1  0  0  0  0
 29 30  2  0  0  0  0
M  END
>  <CHROM.1>
177.15173914,57.88337406,-82.48739461,-178.54860781,-174.49263864,147.71856143
67.53628400,-152.69133135,127.01383673,69.51398501,-73.62451450,-4.57338309
3.14105185,13.63329554,-1.69455250,-0.17270578,-1.18742473

>  <Name>
1uts_lig

>  <RI>
0

>  <Rbt.Current_Directory>
/home/itssahil/PROJECTS/Mol_Feturizer/New_Systems/rnas/1uts

>  <Rbt.Executable>
rbdock ($Id: //depot/dev/client3/rdock/2013.1/src/exe/rbdock.cxx#4 $)

>  <Rbt.Library>
libRbt.so (2013.1, Build901 2013/11/27)

>  <Rbt.Parameter_File>
/export/apps/rDock/src/rDock_2013.1_src/data/scripts/dock_solv.prm

>  <Rbt.Receptor>
prm/pocket_docking_6.prm

>  <SCORE>
-27.0603

>  <SCORE.INTER>
-24.9875

>  <SCORE.INTER.CONST>
1

>  <SCORE.INTER.POLAR>
-0.7454

>  <SCORE.INTER.ROT>
10

>  <SCORE.INTER.SOLV>
7.70084

>  <SCORE.INTER.VDW>
-27.0073

>  <SCORE.INTER.norm>
-0.832918

>  <SCORE.INTRA>
-2.07272

>  <SCORE.INTRA.DIHEDRAL>
-4.8337

>  <SCORE.INTRA.DIHEDRAL.0>
18.0451

>  <SCORE.INTRA.POLAR>
0.196815

>  <SCORE.INTRA.POLAR.0>
-0.196815

>  <SCORE.INTRA.REPUL>
0

>  <SCORE.INTRA.REPUL.0>
0

>  <SCORE.INTRA.SOLV>
-0.308714

>  <SCORE.INTRA.SOLV.lig_0>
-14.7906

>  <SCORE.INTRA.VDW>
-0.170685

>  <SCORE.INTRA.VDW.0>
-0.411701

>  <SCORE.INTRA.norm>
-0.0690906

>  <SCORE.RESTR>
0

>  <SCORE.RESTR.CAVITY>
0

>  <SCORE.RESTR.norm>
0

>  <SCORE.SYSTEM>
0

>  <SCORE.SYSTEM.CONST>
0

>  <SCORE.SYSTEM.DIHEDRAL>
0

>  <SCORE.SYSTEM.SOLV>
0

>  <SCORE.SYSTEM.norm>
0

>  <SCORE.heavy>
30

>  <SCORE.norm>
-0.902009

>  <RMSD>
8.940

$$$$
1uts_lig
 OpenBabel11021811413D
libRbt.so/2013.1/901 2013/11/27
 30 33  0  0  0  0  0  0  0  0999 V2000
    0.1162    2.2270   19.7856 N   0  0  0  0  0  0  0  0  0  0  0  0
   -0.5709    2.4502   17.4371 C   0  0  0  0  0  0  0  0  0  0  0  0
   -4.8810    3.2269   16.1674 C   0  0  0  0  0  0  0  0  0  0  0  0
   -2.0519    2.1604   17.6971 C   0  0  0  0  0  0  0  0  0  0  0  0
   -2.5931    1.4198   16.5932 O   0  0  0  0  0  0  0  0  0  0  0  0
    0.0298    3.1688   18.6467 C   0  0  0  0  0  0  0  0  0  0  0  0
   -6.1315    2.7269   15.5524 N   0  0  0  0  0  0  0  0  0  0  0  0
   -6.6679    3.7445   14.6102 C   0  0  0  0  0  0  0  0  0  0  0  0
   -7.4643    3.0531   13.4997 C   0  0  0  0  0  0  0  0  0  0  0  0
   -8.6921    2.4566   14.0722 N   0  0  0  0  0  0  0  0  0  0  0  0
   -8.9455    1.1366   13.4263 C   0  0  0  0  0  0  0  0  0  0  0  0
   -9.8417    3.3769   13.8434 C   0  0  0  0  0  0  0  0  0  0  0  0
  -10.2223    0.5156   14.0158 C   0  0  0  0  0  0  0  0  0  0  0  0
  -11.1215    2.7544   14.4300 C   0  0  0  0  0  0  0  0  0  0  0  0
  -11.3727    1.4351   13.7861 N   0  0  0  0  0  0  0  0  0  0  0  0
   -1.5793    2.9500   13.2974 C   0  0  0  0  0  0  0  0  0  0  0  0
   -2.5297    7.0007    8.4125 N   0  0  0  0  0  0  0  0  0  0  0  0
   -2.6691    3.8177   13.0468 C   0  0  0  0  0  0  0  0  0  0  0  0
   -3.7359    3.9023   13.9808 C   0  0  0  0  0  0  0  0  0  0  0  0
   -3.7113    3.1204   15.1682 C   0  0  0  0  0  0  0  0  0  0  0  0
   -2.6193    2.2340   15.4110 C   0  0  0  0  0  0  0  0  0  0  0  0
   -1.5527    2.1558   14.4741 C   0  0  0  0  0  0  0  0  0  0  0  0
   -1.5091    7.8819    8.8362 C   0  0  0  0  0  0  0  0  0  0  0  0
   -1.0749    7.5613   10.1425 C   0  0  0  0  0  0  0  0  0  0  0  0
   -1.8136    5.6976   11.7377 C   0  0  0  0  0  0  0  0  0  0  0  0
   -2.6871    4.5844   11.8732 C   0  0  0  0  0  0  0  0  0  0  0  0
   -3.5736    4.2460   10.8141 C   0  0  0  0  0  0  0  0  0  0  0  0
   -3.5844    5.0184    9.6213 C   0  0  0  0  0  0  0  0  0  0  0  0
   -2.6946    6.1293    9.4824 C   0  0  0  0  0  0  0  0  0  0  0  0
   -1.8172    6.4659   10.5294 C   0  0  0  0  0  0  0  0  0  0  0  0
  1  6  1  0  0  0  0
  2  4  1  0  0  0  0
  3  7  1  0  0  0  0
  4  5  1  0  0  0  0
  6  2  1  0  0  0  0
  7  8  1  0  0  0  0
  8  9  1  0  0  0  0
  9 10  1  0  0  0  0
 10 11  1  0  0  0  0
 10 12  1  0  0  0  0
 11 13  1  0  0  0  0
 13 15  1  0  0  0  0
 14 12  1  0  0  0  0
 15 14  1  0  0  0  0
 16 18  2  0  0  0  0
 16 22  1  0  0  0  0
 17 23  1  0  0  0  0
 17 29  1  0  0  0  0
 18 19  1  0  0  0  0
 18 26  1  0  0  0  0
 19 20  2  0  0  0  0
 20  3  1  0  0  0  0
 20 21  1  0  0  0  0
 21  5  1  0  0  0  0
 21 22  2  0  0  0  0
 23 24  2  0  0  0  0
 24 30  1  0  0  0  0
 25 26  2  0  0  0  0
 25 30  1  0  0  0  0
 26 27  1  0  0  0  0
 27 28  2  0  0  0  0
 28 29  1  0  0  0  0
 29 30  2  0  0  0  0
M  END
>  <CHROM.1>
-176.96419369,-176.76200727,-76.43752267,-67.05411587,69.87792964,151.53580709
67.88002065,-141.04533285,-72.78435151,64.91557937,-84.52750524,-4.35054662
3.53680084,13.81015622,-0.37738471,0.22914348,2.06567012

>  <Name>
1uts_lig

>  <RI>
0

>  <Rbt.Current_Directory>
/home/itssahil/PROJECTS/Mol_Feturizer/New_Systems/rnas/1uts

>  <Rbt.Executable>
rbdock ($Id: //depot/dev/client3/rdock/2013.1/src/exe/rbdock.cxx#4 $)

>  <Rbt.Library>
libRbt.so (2013.1, Build901 2013/11/27)

>  <Rbt.Parameter_File>
/export/apps/rDock/src/rDock_2013.1_src/data/scripts/dock_solv.prm

>  <Rbt.Receptor>
prm/pocket_docking_7.prm

>  <SCORE>
-28.0334

>  <SCORE.INTER>
-27.6411

>  <SCORE.INTER.CONST>
1

>  <SCORE.INTER.POLAR>
-0.65665

>  <SCORE.INTER.ROT>
10

>  <SCORE.INTER.SOLV>
8.69358

>  <SCORE.INTER.VDW>
-29.4031

>  <SCORE.INTER.norm>
-0.921369

>  <SCORE.INTRA>
-0.392348

>  <SCORE.INTRA.DIHEDRAL>
-2.43205

>  <SCORE.INTRA.DIHEDRAL.0>
18.0451

>  <SCORE.INTRA.POLAR>
0.196815

>  <SCORE.INTRA.POLAR.0>
-0.196815

>  <SCORE.INTRA.REPUL>
0

>  <SCORE.INTRA.REPUL.0>
0

>  <SCORE.INTRA.SOLV>
-0.299946

>  <SCORE.INTRA.SOLV.lig_0>
-14.7906

>  <SCORE.INTRA.VDW>
0.304475

>  <SCORE.INTRA.VDW.0>
-0.411701

>  <SCORE.INTRA.norm>
-0.0130783

>  <SCORE.RESTR>
0

>  <SCORE.RESTR.CAVITY>
0

>  <SCORE.RESTR.norm>
0

>  <SCORE.SYSTEM>
0

>  <SCORE.SYSTEM.CONST>
0

>  <SCORE.SYSTEM.DIHEDRAL>
0

>  <SCORE.SYSTEM.SOLV>
0

>  <SCORE.SYSTEM.norm>
0

>  <SCORE.heavy>
30

>  <SCORE.norm>
-0.934447

>  <RMSD>
8.995

$$$$
1uts_lig
 OpenBabel11021811413D
libRbt.so/2013.1/901 2013/11/27
 30 33  0  0  0  0  0  0  0  0999 V2000
    5.8081    6.1001   19.0000 N   0  0  0  0  0  0  0  0  0  0  0  0
    3.7213    6.1295   20.2968 C   0  0  0  0  0  0  0  0  0  0  0  0
    0.2307    2.3990   19.1465 C   0  0  0  0  0  0  0  0  0  0  0  0
    2.8333    5.2430   21.1748 C   0  0  0  0  0  0  0  0  0  0  0  0
    1.9762    4.4513   20.3391 O   0  0  0  0  0  0  0  0  0  0  0  0
    4.7100    5.2559   19.5225 C   0  0  0  0  0  0  0  0  0  0  0  0
    0.3083    3.5881   18.2678 N   0  0  0  0  0  0  0  0  0  0  0  0
    0.9197    3.2101   16.9662 C   0  0  0  0  0  0  0  0  0  0  0  0
    0.4104    4.1437   15.8642 C   0  0  0  0  0  0  0  0  0  0  0  0
   -0.8994    3.6589   15.3742 N   0  0  0  0  0  0  0  0  0  0  0  0
   -0.9481    3.7877   13.8893 C   0  0  0  0  0  0  0  0  0  0  0  0
   -1.9888    4.4592   16.0016 C   0  0  0  0  0  0  0  0  0  0  0  0
   -2.3088    3.2886   13.3770 C   0  0  0  0  0  0  0  0  0  0  0  0
   -3.3518    3.9627   15.4865 C   0  0  0  0  0  0  0  0  0  0  0  0
   -3.3987    4.0894   14.0033 N   0  0  0  0  0  0  0  0  0  0  0  0
    4.1721    1.4178   20.7948 C   0  0  0  0  0  0  0  0  0  0  0  0
    5.1967   -4.9075   19.9652 N   0  0  0  0  0  0  0  0  0  0  0  0
    3.3564    0.3993   20.2467 C   0  0  0  0  0  0  0  0  0  0  0  0
    2.0801    0.7240   19.7147 C   0  0  0  0  0  0  0  0  0  0  0  0
    1.6204    2.0695   19.7280 C   0  0  0  0  0  0  0  0  0  0  0  0
    2.4377    3.0925   20.2959 C   0  0  0  0  0  0  0  0  0  0  0  0
    3.7157    2.7620   20.8242 C   0  0  0  0  0  0  0  0  0  0  0  0
    4.9571   -5.1028   18.5860 C   0  0  0  0  0  0  0  0  0  0  0  0
    4.3861   -3.9483   18.0039 C   0  0  0  0  0  0  0  0  0  0  0  0
    3.7928   -1.6782   19.0330 C   0  0  0  0  0  0  0  0  0  0  0  0
    3.8158   -0.9253   20.2385 C   0  0  0  0  0  0  0  0  0  0  0  0
    4.3117   -1.5154   21.4335 C   0  0  0  0  0  0  0  0  0  0  0  0
    4.7856   -2.8551   21.4217 C   0  0  0  0  0  0  0  0  0  0  0  0
    4.7741   -3.6054   20.2043 C   0  0  0  0  0  0  0  0  0  0  0  0
    4.2833   -3.0235   19.0212 C   0  0  0  0  0  0  0  0  0  0  0  0
  1  6  1  0  0  0  0
  2  4  1  0  0  0  0
  3  7  1  0  0  0  0
  4  5  1  0  0  0  0
  6  2  1  0  0  0  0
  7  8  1  0  0  0  0
  8  9  1  0  0  0  0
  9 10  1  0  0  0  0
 10 11  1  0  0  0  0
 10 12  1  0  0  0  0
 11 13  1  0  0  0  0
 13 15  1  0  0  0  0
 14 12  1  0  0  0  0
 15 14  1  0  0  0  0
 16 18  2  0  0  0  0
 16 22  1  0  0  0  0
 17 23  1  0  0  0  0
 17 29  1  0  0  0  0
 18 19  1  0  0  0  0
 18 26  1  0  0  0  0
 19 20  2  0  0  0  0
 20  3  1  0  0  0  0
 20 21  1  0  0  0  0
 21  5  1  0  0  0  0
 21 22  2  0  0  0  0
 23 24  2  0  0  0  0
 24 30  1  0  0  0  0
 25 26  2  0  0  0  0
 25 30  1  0  0  0  0
 26 27  1  0  0  0  0
 27 28  2  0  0  0  0
 28 29  1  0  0  0  0
 29 30  2  0  0  0  0
M  END
>  <CHROM.1>
61.05918933,-67.88364570,76.09539894,104.99647674,-163.31334568,152.40895234
-83.31067733,-138.83833320,-128.81510073,-133.92598420,168.75468510,2.10793568
1.72706804,18.52416862,-2.47832714,0.75124643,-2.97611414

>  <Name>
1uts_lig

>  <RI>
0

>  <Rbt.Current_Directory>
/home/itssahil/PROJECTS/Mol_Feturizer/New_Systems/rnas/1uts

>  <Rbt.Executable>
rbdock ($Id: //depot/dev/client3/rdock/2013.1/src/exe/rbdock.cxx#4 $)

>  <Rbt.Library>
libRbt.so (2013.1, Build901 2013/11/27)

>  <Rbt.Parameter_File>
/export/apps/rDock/src/rDock_2013.1_src/data/scripts/dock_solv.prm

>  <Rbt.Receptor>
prm/pocket_docking_3.prm

>  <SCORE>
-7.98857

>  <SCORE.INTER>
-9.86904

>  <SCORE.INTER.CONST>
1

>  <SCORE.INTER.POLAR>
-1.44546

>  <SCORE.INTER.ROT>
10

>  <SCORE.INTER.SOLV>
3.84653

>  <SCORE.INTER.VDW>
-13.31

>  <SCORE.INTER.norm>
-0.328968

>  <SCORE.INTRA>
1.87532

>  <SCORE.INTRA.DIHEDRAL>
-0.131006

>  <SCORE.INTRA.DIHEDRAL.0>
18.0451

>  <SCORE.INTRA.POLAR>
-0.533285

>  <SCORE.INTRA.POLAR.0>
-0.196815

>  <SCORE.INTRA.REPUL>
0

>  <SCORE.INTRA.REPUL.0>
0

>  <SCORE.INTRA.SOLV>
-0.065775

>  <SCORE.INTRA.SOLV.lig_0>
-14.7906

>  <SCORE.INTRA.VDW>
3.78688

>  <SCORE.INTRA.VDW.0>
-0.411701

>  <SCORE.INTRA.norm>
0.0625106

>  <SCORE.RESTR>
0.00515256

>  <SCORE.RESTR.CAVITY>
0.00515256

>  <SCORE.RESTR.norm>
0.000171752

>  <SCORE.SYSTEM>
0

>  <SCORE.SYSTEM.CONST>
0

>  <SCORE.SYSTEM.DIHEDRAL>
0

>  <SCORE.SYSTEM.SOLV>
0

>  <SCORE.SYSTEM.norm>
0

>  <SCORE.heavy>
30

>  <SCORE.norm>
-0.266286

>  <RMSD>
9.011

$$$$
1uts_lig
 OpenBabel11021811413D
libRbt.so/2013.1/901 2013/11/27
 30 33  0  0  0  0  0  0  0  0999 V2000
   -1.4127    4.8385   10.5132 N   0  0  0  0  0  0  0  0  0  0  0  0
   -1.8109    4.0375   12.8016 C   0  0  0  0  0  0  0  0  0  0  0  0
    1.3454    3.1541   15.8594 C   0  0  0  0  0  0  0  0  0  0  0  0
   -1.7028    2.6592   13.4604 C   0  0  0  0  0  0  0  0  0  0  0  0
   -1.4042    2.8201   14.8549 O   0  0  0  0  0  0  0  0  0  0  0  0
   -2.1838    3.8720   11.3273 C   0  0  0  0  0  0  0  0  0  0  0  0
    0.3628    4.2515   16.0084 N   0  0  0  0  0  0  0  0  0  0  0  0
   -0.0960    4.3247   17.4209 C   0  0  0  0  0  0  0  0  0  0  0  0
   -1.4281    5.0767   17.4944 C   0  0  0  0  0  0  0  0  0  0  0  0
   -1.8213    5.2449   18.9115 N   0  0  0  0  0  0  0  0  0  0  0  0
   -3.2818    5.5371   18.9858 C   0  0  0  0  0  0  0  0  0  0  0  0
   -1.0365    6.3598   19.5130 C   0  0  0  0  0  0  0  0  0  0  0  0
   -3.6931    5.7163   20.4562 C   0  0  0  0  0  0  0  0  0  0  0  0
   -1.4503    6.5426   20.9844 C   0  0  0  0  0  0  0  0  0  0  0  0
   -2.9094    6.8321   21.0580 N   0  0  0  0  0  0  0  0  0  0  0  0
   -0.6548   -0.7463   15.8302 C   0  0  0  0  0  0  0  0  0  0  0  0
    3.4858   -5.0720   18.3049 N   0  0  0  0  0  0  0  0  0  0  0  0
    0.6737   -0.6314   16.3046 C   0  0  0  0  0  0  0  0  0  0  0  0
    1.3162    0.6354   16.3109 C   0  0  0  0  0  0  0  0  0  0  0  0
    0.6280    1.7892   15.8451 C   0  0  0  0  0  0  0  0  0  0  0  0
   -0.7059    1.6683   15.3518 C   0  0  0  0  0  0  0  0  0  0  0  0
   -1.3450    0.3982   15.3508 C   0  0  0  0  0  0  0  0  0  0  0  0
    4.4022   -4.3527   19.1053 C   0  0  0  0  0  0  0  0  0  0  0  0
    4.1866   -2.9604   18.9929 C   0  0  0  0  0  0  0  0  0  0  0  0
    2.4496   -1.6424   17.6476 C   0  0  0  0  0  0  0  0  0  0  0  0
    1.3464   -1.7737   16.7610 C   0  0  0  0  0  0  0  0  0  0  0  0
    0.9222   -3.0653   16.3437 C   0  0  0  0  0  0  0  0  0  0  0  0
    1.5990   -4.2228   16.8144 C   0  0  0  0  0  0  0  0  0  0  0  0
    2.6998   -4.0881   17.7172 C   0  0  0  0  0  0  0  0  0  0  0  0
    3.1213   -2.8111   18.1307 C   0  0  0  0  0  0  0  0  0  0  0  0
  1  6  1  0  0  0  0
  2  4  1  0  0  0  0
  3  7  1  0  0  0  0
  4  5  1  0  0  0  0
  6  2  1  0  0  0  0
  7  8  1  0  0  0  0
  8  9  1  0  0  0  0
  9 10  1  0  0  0  0
 10 11  1  0  0  0  0
 10 12  1  0  0  0  0
 11 13  1  0  0  0  0
 13 15  1  0  0  0  0
 14 12  1  0  0  0  0
 15 14  1  0  0  0  0
 16 18  2  0  0  0  0
 16 22  1  0  0  0  0
 17 23  1  0  0  0  0
 17 29  1  0  0  0  0
 18 19  1  0  0  0  0
 18 26  1  0  0  0  0
 19 20  2  0  0  0  0
 20  3  1  0  0  0  0
 20 21  1  0  0  0  0
 21  5  1  0  0  0  0
 21 22  2  0  0  0  0
 23 24  2  0  0  0  0
 24 30  1  0  0  0  0
 25 26  2  0  0  0  0
 25 30  1  0  0  0  0
 26 27  1  0  0  0  0
 27 28  2  0  0  0  0
 28 29  1  0  0  0  0
 29 30  2  0  0  0  0
M  END
>  <CHROM.1>
-42.37140030,-177.77592979,76.34616218,-153.25752629,-139.53603168,-159.90807436
-175.28599219,-160.80130553,-157.99859870,-151.63656965,116.73382636,-0.04076036
1.68486418,16.78307847,2.97829031,-1.07562065,1.35092230

>  <Name>
1uts_lig

>  <RI>
0

>  <Rbt.Current_Directory>
/home/itssahil/PROJECTS/Mol_Feturizer/New_Systems/rnas/1uts

>  <Rbt.Executable>
rbdock ($Id: //depot/dev/client3/rdock/2013.1/src/exe/rbdock.cxx#4 $)

>  <Rbt.Library>
libRbt.so (2013.1, Build901 2013/11/27)

>  <Rbt.Parameter_File>
/export/apps/rDock/src/rDock_2013.1_src/data/scripts/dock_solv.prm

>  <Rbt.Receptor>
prm/pocket_docking_7.prm

>  <SCORE>
-31.282

>  <SCORE.INTER>
-29.3336

>  <SCORE.INTER.CONST>
1

>  <SCORE.INTER.POLAR>
-2.03918

>  <SCORE.INTER.ROT>
10

>  <SCORE.INTER.SOLV>
8.16997

>  <SCORE.INTER.VDW>
-25.7485

>  <SCORE.INTER.norm>
-0.977786

>  <SCORE.INTRA>
-1.94839

>  <SCORE.INTRA.DIHEDRAL>
-2.49019

>  <SCORE.INTRA.DIHEDRAL.0>
18.0451

>  <SCORE.INTRA.POLAR>
-0.612091

>  <SCORE.INTRA.POLAR.0>
-0.196815

>  <SCORE.INTRA.REPUL>
0

>  <SCORE.INTRA.REPUL.0>
0

>  <SCORE.INTRA.SOLV>
-0.169799

>  <SCORE.INTRA.SOLV.lig_0>
-14.7906

>  <SCORE.INTRA.VDW>
1.46272

>  <SCORE.INTRA.VDW.0>
-0.411701

>  <SCORE.INTRA.norm>
-0.0649462

>  <SCORE.RESTR>
0

>  <SCORE.RESTR.CAVITY>
0

>  <SCORE.RESTR.norm>
0

>  <SCORE.SYSTEM>
0

>  <SCORE.SYSTEM.CONST>
0

>  <SCORE.SYSTEM.DIHEDRAL>
0

>  <SCORE.SYSTEM.SOLV>
0

>  <SCORE.SYSTEM.norm>
0

>  <SCORE.heavy>
30

>  <SCORE.norm>
-1.04273

>  <RMSD>
9.016

$$$$
1uts_lig
 OpenBabel11021811413D
libRbt.so/2013.1/901 2013/11/27
 30 33  0  0  0  0  0  0  0  0999 V2000
    0.0081   -0.4782   15.4863 N   0  0  0  0  0  0  0  0  0  0  0  0
    0.3099    1.8212   16.2980 C   0  0  0  0  0  0  0  0  0  0  0  0
   -2.3105    3.6800   13.0988 C   0  0  0  0  0  0  0  0  0  0  0  0
   -0.8819    2.1880   15.4091 C   0  0  0  0  0  0  0  0  0  0  0  0
   -1.5072    3.3757   15.9172 O   0  0  0  0  0  0  0  0  0  0  0  0
    1.0093    0.5843   15.7312 C   0  0  0  0  0  0  0  0  0  0  0  0
   -2.0331    5.1117   12.8429 N   0  0  0  0  0  0  0  0  0  0  0  0
   -2.0733    5.3760   11.3802 C   0  0  0  0  0  0  0  0  0  0  0  0
   -2.5063    6.8231   11.1272 C   0  0  0  0  0  0  0  0  0  0  0  0
   -2.6020    7.0609    9.6694 N   0  0  0  0  0  0  0  0  0  0  0  0
   -1.2956    7.5761    9.1677 C   0  0  0  0  0  0  0  0  0  0  0  0
   -3.6876    8.0455    9.3996 C   0  0  0  0  0  0  0  0  0  0  0  0
   -1.3924    7.8280    7.6543 C   0  0  0  0  0  0  0  0  0  0  0  0
   -3.7831    8.3013    7.8847 C   0  0  0  0  0  0  0  0  0  0  0  0
   -2.4772    8.8136    7.3839 N   0  0  0  0  0  0  0  0  0  0  0  0
   -5.2566    3.2560   16.3168 C   0  0  0  0  0  0  0  0  0  0  0  0
  -11.2239    3.6416   14.0345 N   0  0  0  0  0  0  0  0  0  0  0  0
   -5.6842    3.4180   14.9773 C   0  0  0  0  0  0  0  0  0  0  0  0
   -4.7243    3.5554   13.9395 C   0  0  0  0  0  0  0  0  0  0  0  0
   -3.3350    3.5275   14.2412 C   0  0  0  0  0  0  0  0  0  0  0  0
   -2.9061    3.3803   15.5945 C   0  0  0  0  0  0  0  0  0  0  0  0
   -3.8715    3.2402   16.6289 C   0  0  0  0  0  0  0  0  0  0  0  0
  -11.6100    4.0032   15.3452 C   0  0  0  0  0  0  0  0  0  0  0  0
  -10.4848    4.0984   16.1952 C   0  0  0  0  0  0  0  0  0  0  0  0
   -7.9920    3.7596   15.7102 C   0  0  0  0  0  0  0  0  0  0  0  0
   -7.0557    3.4460   14.6877 C   0  0  0  0  0  0  0  0  0  0  0  0
   -7.5119    3.1678   13.3699 C   0  0  0  0  0  0  0  0  0  0  0  0
   -8.9017    3.2056   13.0755 C   0  0  0  0  0  0  0  0  0  0  0  0
   -9.8401    3.5350   14.1031 C   0  0  0  0  0  0  0  0  0  0  0  0
   -9.3906    3.8100   15.4076 C   0  0  0  0  0  0  0  0  0  0  0  0
  1  6  1  0  0  0  0
  2  4  1  0  0  0  0
  3  7  1  0  0  0  0
  4  5  1  0  0  0  0
  6  2  1  0  0  0  0
  7  8  1  0  0  0  0
  8  9  1  0  0  0  0
  9 10  1  0  0  0  0
 10 11  1  0  0  0  0
 10 12  1  0  0  0  0
 11 13  1  0  0  0  0
 13 15  1  0  0  0  0
 14 12  1  0  0  0  0
 15 14  1  0  0  0  0
 16 18  2  0  0  0  0
 16 22  1  0  0  0  0
 17 23  1  0  0  0  0
 17 29  1  0  0  0  0
 18 19  1  0  0  0  0
 18 26  1  0  0  0  0
 19 20  2  0  0  0  0
 20  3  1  0  0  0  0
 20 21  1  0  0  0  0
 21  5  1  0  0  0  0
 21 22  2  0  0  0  0
 23 24  2  0  0  0  0
 24 30  1  0  0  0  0
 25 26  2  0  0  0  0
 25 30  1  0  0  0  0
 26 27  1  0  0  0  0
 27 28  2  0  0  0  0
 28 29  1  0  0  0  0
 29 30  2  0  0  0  0
M  END
>  <CHROM.1>
75.92651939,-177.99304332,-133.81432394,-151.08297841,-50.81283514,151.04557791
-177.50635863,-91.57587067,20.99172874,86.96942824,-68.56902630,-4.33113678
4.33490160,13.31291034,-0.76773232,-0.10681253,2.25324181

>  <Name>
1uts_lig

>  <RI>
0

>  <Rbt.Current_Directory>
/home/itssahil/PROJECTS/Mol_Feturizer/New_Systems/rnas/1uts

>  <Rbt.Executable>
rbdock ($Id: //depot/dev/client3/rdock/2013.1/src/exe/rbdock.cxx#4 $)

>  <Rbt.Library>
libRbt.so (2013.1, Build901 2013/11/27)

>  <Rbt.Parameter_File>
/export/apps/rDock/src/rDock_2013.1_src/data/scripts/dock_solv.prm

>  <Rbt.Receptor>
prm/pocket_docking_8.prm

>  <SCORE>
-45.2843

>  <SCORE.INTER>
-47.2041

>  <SCORE.INTER.CONST>
1

>  <SCORE.INTER.POLAR>
-2.98467

>  <SCORE.INTER.ROT>
10

>  <SCORE.INTER.SOLV>
12.2403

>  <SCORE.INTER.VDW>
-35.8673

>  <SCORE.INTER.norm>
-1.57347

>  <SCORE.INTRA>
1.91983

>  <SCORE.INTRA.DIHEDRAL>
-1.37178

>  <SCORE.INTRA.DIHEDRAL.0>
18.0451

>  <SCORE.INTRA.POLAR>
0.196815

>  <SCORE.INTRA.POLAR.0>
-0.196815

>  <SCORE.INTRA.REPUL>
0

>  <SCORE.INTRA.REPUL.0>
0

>  <SCORE.INTRA.SOLV>
-0.438314

>  <SCORE.INTRA.SOLV.lig_0>
-14.7906

>  <SCORE.INTRA.VDW>
2.15571

>  <SCORE.INTRA.VDW.0>
-0.411701

>  <SCORE.INTRA.norm>
0.0639944

>  <SCORE.RESTR>
0

>  <SCORE.RESTR.CAVITY>
0

>  <SCORE.RESTR.norm>
0

>  <SCORE.SYSTEM>
0

>  <SCORE.SYSTEM.CONST>
0

>  <SCORE.SYSTEM.DIHEDRAL>
0

>  <SCORE.SYSTEM.SOLV>
0

>  <SCORE.SYSTEM.norm>
0

>  <SCORE.heavy>
30

>  <SCORE.norm>
-1.50948

>  <RMSD>
9.084

$$$$
1uts_lig
 OpenBabel11021811413D
libRbt.so/2013.1/901 2013/11/27
 30 33  0  0  0  0  0  0  0  0999 V2000
   -2.7066    6.6195   19.9776 N   0  0  0  0  0  0  0  0  0  0  0  0
   -1.1991    4.7718   19.3854 C   0  0  0  0  0  0  0  0  0  0  0  0
   -5.0256    3.3839   16.1580 C   0  0  0  0  0  0  0  0  0  0  0  0
   -1.3486    4.9144   17.8680 C   0  0  0  0  0  0  0  0  0  0  0  0
   -2.4782    4.1469   17.4267 O   0  0  0  0  0  0  0  0  0  0  0  0
   -2.5139    5.1545   20.0673 C   0  0  0  0  0  0  0  0  0  0  0  0
   -6.2340    4.0839   15.6659 N   0  0  0  0  0  0  0  0  0  0  0  0
   -7.4265    3.2155   15.8521 C   0  0  0  0  0  0  0  0  0  0  0  0
   -8.5353    3.6446   14.8867 C   0  0  0  0  0  0  0  0  0  0  0  0
   -9.6071    2.6238   14.8825 N   0  0  0  0  0  0  0  0  0  0  0  0
   -9.0788    1.3576   14.2982 C   0  0  0  0  0  0  0  0  0  0  0  0
  -10.7620    3.1230   14.0838 C   0  0  0  0  0  0  0  0  0  0  0  0
  -10.1905    0.2959   14.2886 C   0  0  0  0  0  0  0  0  0  0  0  0
  -11.8744    2.0592   14.0704 C   0  0  0  0  0  0  0  0  0  0  0  0
  -11.3453    0.7942   13.4889 N   0  0  0  0  0  0  0  0  0  0  0  0
   -1.5299    4.5849   13.8017 C   0  0  0  0  0  0  0  0  0  0  0  0
   -2.7357    4.1893    7.5291 N   0  0  0  0  0  0  0  0  0  0  0  0
   -2.7301    4.2083   13.1529 C   0  0  0  0  0  0  0  0  0  0  0  0
   -3.8590    3.8197   13.9224 C   0  0  0  0  0  0  0  0  0  0  0  0
   -3.7884    3.8109   15.3426 C   0  0  0  0  0  0  0  0  0  0  0  0
   -2.5721    4.1754   15.9944 C   0  0  0  0  0  0  0  0  0  0  0  0
   -1.4462    4.5664   15.2190 C   0  0  0  0  0  0  0  0  0  0  0  0
   -1.3339    4.1482    7.3529 C   0  0  0  0  0  0  0  0  0  0  0  0
   -0.6676    4.1573    8.5994 C   0  0  0  0  0  0  0  0  0  0  0  0
   -1.5934    4.2015   10.9878 C   0  0  0  0  0  0  0  0  0  0  0  0
   -2.7917    4.2181   11.7523 C   0  0  0  0  0  0  0  0  0  0  0  0
   -4.0521    4.2376   11.0942 C   0  0  0  0  0  0  0  0  0  0  0  0
   -4.1133    4.2381    9.6744 C   0  0  0  0  0  0  0  0  0  0  0  0
   -2.9063    4.2074    8.9082 C   0  0  0  0  0  0  0  0  0  0  0  0
   -1.6584    4.1887    9.5575 C   0  0  0  0  0  0  0  0  0  0  0  0
  1  6  1  0  0  0  0
  2  4  1  0  0  0  0
  3  7  1  0  0  0  0
  4  5  1  0  0  0  0
  6  2  1  0  0  0  0
  7  8  1  0  0  0  0
  8  9  1  0  0  0  0
  9 10  1  0  0  0  0
 10 11  1  0  0  0  0
 10 12  1  0  0  0  0
 11 13  1  0  0  0  0
 13 15  1  0  0  0  0
 14 12  1  0  0  0  0
 15 14  1  0  0  0  0
 16 18  2  0  0  0  0
 16 22  1  0  0  0  0
 17 23  1  0  0  0  0
 17 29  1  0  0  0  0
 18 19  1  0  0  0  0
 18 26  1  0  0  0  0
 19 20  2  0  0  0  0
 20  3  1  0  0  0  0
 20 21  1  0  0  0  0
 21  5  1  0  0  0  0
 21 22  2  0  0  0  0
 23 24  2  0  0  0  0
 24 30  1  0  0  0  0
 25 26  2  0  0  0  0
 25 30  1  0  0  0  0
 26 27  1  0  0  0  0
 27 28  2  0  0  0  0
 28 29  1  0  0  0  0
 29 30  2  0  0  0  0
M  END
>  <CHROM.1>
-172.68696043,-54.47433596,148.69045727,-175.21021705,-71.90707091,-157.54443291
168.83371974,-66.33559256,19.05831158,-48.07651904,-162.63205715,-4.73083160
3.76274892,13.98648270,-0.39308547,0.31256608,1.46909736

>  <Name>
1uts_lig

>  <RI>
0

>  <Rbt.Current_Directory>
/home/itssahil/PROJECTS/Mol_Feturizer/New_Systems/rnas/1uts

>  <Rbt.Executable>
rbdock ($Id: //depot/dev/client3/rdock/2013.1/src/exe/rbdock.cxx#4 $)

>  <Rbt.Library>
libRbt.so (2013.1, Build901 2013/11/27)

>  <Rbt.Parameter_File>
/export/apps/rDock/src/rDock_2013.1_src/data/scripts/dock_solv.prm

>  <Rbt.Receptor>
prm/pocket_docking_6.prm

>  <SCORE>
-33.7108

>  <SCORE.INTER>
-34.3774

>  <SCORE.INTER.CONST>
1

>  <SCORE.INTER.POLAR>
-1.5889

>  <SCORE.INTER.ROT>
10

>  <SCORE.INTER.SOLV>
9.91076

>  <SCORE.INTER.VDW>
-31.1922

>  <SCORE.INTER.norm>
-1.14591

>  <SCORE.INTRA>
0.61718

>  <SCORE.INTRA.DIHEDRAL>
-11.875

>  <SCORE.INTRA.DIHEDRAL.0>
18.0451

>  <SCORE.INTRA.POLAR>
0.196815

>  <SCORE.INTRA.POLAR.0>
-0.196815

>  <SCORE.INTRA.REPUL>
0

>  <SCORE.INTRA.REPUL.0>
0

>  <SCORE.INTRA.SOLV>
-0.352666

>  <SCORE.INTRA.SOLV.lig_0>
-14.7906

>  <SCORE.INTRA.VDW>
6.06184

>  <SCORE.INTRA.VDW.0>
-0.411701

>  <SCORE.INTRA.norm>
0.0205727

>  <SCORE.RESTR>
0.049393

>  <SCORE.RESTR.CAVITY>
0.049393

>  <SCORE.RESTR.norm>
0.00164643

>  <SCORE.SYSTEM>
0

>  <SCORE.SYSTEM.CONST>
0

>  <SCORE.SYSTEM.DIHEDRAL>
0

>  <SCORE.SYSTEM.SOLV>
0

>  <SCORE.SYSTEM.norm>
0

>  <SCORE.heavy>
30

>  <SCORE.norm>
-1.12369

>  <RMSD>
9.150

$$$$
1uts_lig
 OpenBabel11021811413D
libRbt.so/2013.1/901 2013/11/27
 30 33  0  0  0  0  0  0  0  0999 V2000
   -4.2001    3.3374   17.3148 N   0  0  0  0  0  0  0  0  0  0  0  0
   -2.3654    4.9440   17.0148 C   0  0  0  0  0  0  0  0  0  0  0  0
   -2.5006    3.0874   13.9795 C   0  0  0  0  0  0  0  0  0  0  0  0
   -0.8483    5.0550   16.8378 C   0  0  0  0  0  0  0  0  0  0  0  0
   -0.4830    4.5617   15.5405 O   0  0  0  0  0  0  0  0  0  0  0  0
   -2.7321    3.5093   17.3985 C   0  0  0  0  0  0  0  0  0  0  0  0
   -2.0748    4.4631   13.6357 N   0  0  0  0  0  0  0  0  0  0  0  0
   -2.1289    4.6506   12.1616 C   0  0  0  0  0  0  0  0  0  0  0  0
   -2.0774    6.1443   11.8274 C   0  0  0  0  0  0  0  0  0  0  0  0
   -2.0773    6.3204   10.3577 N   0  0  0  0  0  0  0  0  0  0  0  0
   -0.7060    6.0635    9.8311 C   0  0  0  0  0  0  0  0  0  0  0  0
   -2.5103    7.7073   10.0262 C   0  0  0  0  0  0  0  0  0  0  0  0
   -0.7011    6.2493    8.3051 C   0  0  0  0  0  0  0  0  0  0  0  0
   -2.5023    7.8957    8.4985 C   0  0  0  0  0  0  0  0  0  0  0  0
   -1.1329    7.6366    7.9730 N   0  0  0  0  0  0  0  0  0  0  0  0
    0.5871    1.0272   16.3111 C   0  0  0  0  0  0  0  0  0  0  0  0
   -0.4600   -5.3372   15.8074 N   0  0  0  0  0  0  0  0  0  0  0  0
   -0.3751    0.2817   15.5890 C   0  0  0  0  0  0  0  0  0  0  0  0
   -1.3732    0.9556   14.8358 C   0  0  0  0  0  0  0  0  0  0  0  0
   -1.4071    2.3767   14.8024 C   0  0  0  0  0  0  0  0  0  0  0  0
   -0.4457    3.1266   15.5445 C   0  0  0  0  0  0  0  0  0  0  0  0
    0.5529    2.4466   16.2941 C   0  0  0  0  0  0  0  0  0  0  0  0
   -1.7181   -5.4688   16.4379 C   0  0  0  0  0  0  0  0  0  0  0  0
   -2.2835   -4.2016   16.7066 C   0  0  0  0  0  0  0  0  0  0  0  0
   -1.4119   -1.8443   16.2091 C   0  0  0  0  0  0  0  0  0  0  0  0
   -0.3363   -1.1192   15.6278 C   0  0  0  0  0  0  0  0  0  0  0  0
    0.7750   -1.8171   15.0800 C   0  0  0  0  0  0  0  0  0  0  0  0
    0.8088   -3.2374   15.1118 C   0  0  0  0  0  0  0  0  0  0  0  0
   -0.2811   -3.9646   15.6848 C   0  0  0  0  0  0  0  0  0  0  0  0
   -1.3812   -3.2758   16.2278 C   0  0  0  0  0  0  0  0  0  0  0  0
  1  6  1  0  0  0  0
  2  4  1  0  0  0  0
  3  7  1  0  0  0  0
  4  5  1  0  0  0  0
  6  2  1  0  0  0  0
  7  8  1  0  0  0  0
  8  9  1  0  0  0  0
  9 10  1  0  0  0  0
 10 11  1  0  0  0  0
 10 12  1  0  0  0  0
 11 13  1  0  0  0  0
 13 15  1  0  0  0  0
 14 12  1  0  0  0  0
 15 14  1  0  0  0  0
 16 18  2  0  0  0  0
 16 22  1  0  0  0  0
 17 23  1  0  0  0  0
 17 29  1  0  0  0  0
 18 19  1  0  0  0  0
 18 26  1  0  0  0  0
 19 20  2  0  0  0  0
 20  3  1  0  0  0  0
 20 21  1  0  0  0  0
 21  5  1  0  0  0  0
 21 22  2  0  0  0  0
 23 24  2  0  0  0  0
 24 30  1  0  0  0  0
 25 26  2  0  0  0  0
 25 30  1  0  0  0  0
 26 27  1  0  0  0  0
 27 28  2  0  0  0  0
 28 29  1  0  0  0  0
 29 30  2  0  0  0  0
M  END
>  <CHROM.1>
61.20702096,80.58010668,124.16301369,-79.42264347,-169.19141872,164.21645647
177.76700723,-78.99553486,115.79306995,-157.81400449,112.01441902,-1.31203456
2.24830615,14.14923223,1.22004667,-1.32888366,2.25839215

>  <Name>
1uts_lig

>  <RI>
0

>  <Rbt.Current_Directory>
/home/itssahil/PROJECTS/Mol_Feturizer/New_Systems/rnas/1uts

>  <Rbt.Executable>
rbdock ($Id: //depot/dev/client3/rdock/2013.1/src/exe/rbdock.cxx#4 $)

>  <Rbt.Library>
libRbt.so (2013.1, Build901 2013/11/27)

>  <Rbt.Parameter_File>
/export/apps/rDock/src/rDock_2013.1_src/data/scripts/dock_solv.prm

>  <Rbt.Receptor>
prm/pocket_docking_8.prm

>  <SCORE>
-39.1186

>  <SCORE.INTER>
-37.7305

>  <SCORE.INTER.CONST>
1

>  <SCORE.INTER.POLAR>
-2.33845

>  <SCORE.INTER.ROT>
10

>  <SCORE.INTER.SOLV>
11.7107

>  <SCORE.INTER.VDW>
-31.529

>  <SCORE.INTER.norm>
-1.25768

>  <SCORE.INTRA>
-1.38816

>  <SCORE.INTRA.DIHEDRAL>
-0.684267

>  <SCORE.INTRA.DIHEDRAL.0>
18.0451

>  <SCORE.INTRA.POLAR>
-0.402684

>  <SCORE.INTRA.POLAR.0>
-0.196815

>  <SCORE.INTRA.REPUL>
0

>  <SCORE.INTRA.REPUL.0>
0

>  <SCORE.INTRA.SOLV>
0.122227

>  <SCORE.INTRA.SOLV.lig_0>
-14.7906

>  <SCORE.INTRA.VDW>
0.26199

>  <SCORE.INTRA.VDW.0>
-0.411701

>  <SCORE.INTRA.norm>
-0.0462719

>  <SCORE.RESTR>
0

>  <SCORE.RESTR.CAVITY>
0

>  <SCORE.RESTR.norm>
0

>  <SCORE.SYSTEM>
0

>  <SCORE.SYSTEM.CONST>
0

>  <SCORE.SYSTEM.DIHEDRAL>
0

>  <SCORE.SYSTEM.SOLV>
0

>  <SCORE.SYSTEM.norm>
0

>  <SCORE.heavy>
30

>  <SCORE.norm>
-1.30395

>  <RMSD>
9.169

$$$$
1uts_lig
 OpenBabel11021811413D
libRbt.so/2013.1/901 2013/11/27
 30 33  0  0  0  0  0  0  0  0999 V2000
    0.9643   -4.6186   16.6209 N   0  0  0  0  0  0  0  0  0  0  0  0
    0.4000   -2.9568   14.9012 C   0  0  0  0  0  0  0  0  0  0  0  0
   -1.0114    1.6311   14.8568 C   0  0  0  0  0  0  0  0  0  0  0  0
    0.5952   -1.6800   15.7238 C   0  0  0  0  0  0  0  0  0  0  0  0
    0.9213   -0.5928   14.8454 O   0  0  0  0  0  0  0  0  0  0  0  0
   -0.1400   -4.0686   15.8027 C   0  0  0  0  0  0  0  0  0  0  0  0
   -2.1566    1.7176   15.7912 N   0  0  0  0  0  0  0  0  0  0  0  0
   -2.4677    3.1444   16.0715 C   0  0  0  0  0  0  0  0  0  0  0  0
   -3.3762    3.7019   14.9718 C   0  0  0  0  0  0  0  0  0  0  0  0
   -4.7785    3.3182   15.2497 N   0  0  0  0  0  0  0  0  0  0  0  0
   -5.5814    3.4480   13.9997 C   0  0  0  0  0  0  0  0  0  0  0  0
   -5.3302    4.2009   16.3162 C   0  0  0  0  0  0  0  0  0  0  0  0
   -7.0396    3.0540   14.2854 C   0  0  0  0  0  0  0  0  0  0  0  0
   -6.7916    3.8096   16.6005 C   0  0  0  0  0  0  0  0  0  0  0  0
   -7.5923    3.9372   15.3512 N   0  0  0  0  0  0  0  0  0  0  0  0
    2.7661    1.8304   17.0716 C   0  0  0  0  0  0  0  0  0  0  0  0
    3.4494    7.4940   19.9681 N   0  0  0  0  0  0  0  0  0  0  0  0
    1.8726    2.9280   17.0884 C   0  0  0  0  0  0  0  0  0  0  0  0
    0.6505    2.8570   16.3681 C   0  0  0  0  0  0  0  0  0  0  0  0
    0.3201    1.6857   15.6328 C   0  0  0  0  0  0  0  0  0  0  0  0
    1.2299    0.5864   15.6040 C   0  0  0  0  0  0  0  0  0  0  0  0
    2.4504    0.6619   16.3294 C   0  0  0  0  0  0  0  0  0  0  0  0
    4.8135    7.1509   20.1069 C   0  0  0  0  0  0  0  0  0  0  0  0
    5.0821    5.8971   19.5123 C   0  0  0  0  0  0  0  0  0  0  0  0
    3.5398    4.2755   18.2650 C   0  0  0  0  0  0  0  0  0  0  0  0
    2.2059    4.0801   17.8144 C   0  0  0  0  0  0  0  0  0  0  0  0
    1.2124    5.0581   18.0952 C   0  0  0  0  0  0  0  0  0  0  0  0
    1.5536    6.2299   18.8233 C   0  0  0  0  0  0  0  0  0  0  0  0
    2.8995    6.4301   19.2633 C   0  0  0  0  0  0  0  0  0  0  0  0
    3.8836    5.4634   18.9869 C   0  0  0  0  0  0  0  0  0  0  0  0
  1  6  1  0  0  0  0
  2  4  1  0  0  0  0
  3  7  1  0  0  0  0
  4  5  1  0  0  0  0
  6  2  1  0  0  0  0
  7  8  1  0  0  0  0
  8  9  1  0  0  0  0
  9 10  1  0  0  0  0
 10 11  1  0  0  0  0
 10 12  1  0  0  0  0
 11 13  1  0  0  0  0
 13 15  1  0  0  0  0
 14 12  1  0  0  0  0
 15 14  1  0  0  0  0
 16 18  2  0  0  0  0
 16 22  1  0  0  0  0
 17 23  1  0  0  0  0
 17 29  1  0  0  0  0
 18 19  1  0  0  0  0
 18 26  1  0  0  0  0
 19 20  2  0  0  0  0
 20  3  1  0  0  0  0
 20 21  1  0  0  0  0
 21  5  1  0  0  0  0
 21 22  2  0  0  0  0
 23 24  2  0  0  0  0
 24 30  1  0  0  0  0
 25 26  2  0  0  0  0
 25 30  1  0  0  0  0
 26 27  1  0  0  0  0
 27 28  2  0  0  0  0
 28 29  1  0  0  0  0
 29 30  2  0  0  0  0
M  END
>  <CHROM.1>
172.41777880,-172.00653217,85.74950775,-174.68501189,-77.43351139,84.36547523
81.73110662,-161.27952927,14.62605518,-63.43986000,-108.02937808,-0.34281511
2.57740169,16.61706486,-2.69093841,-0.29970708,0.30370457

>  <Name>
1uts_lig

>  <RI>
0

>  <Rbt.Current_Directory>
/home/itssahil/PROJECTS/Mol_Feturizer/New_Systems/rnas/1uts

>  <Rbt.Executable>
rbdock ($Id: //depot/dev/client3/rdock/2013.1/src/exe/rbdock.cxx#4 $)

>  <Rbt.Library>
libRbt.so (2013.1, Build901 2013/11/27)

>  <Rbt.Parameter_File>
/export/apps/rDock/src/rDock_2013.1_src/data/scripts/dock_solv.prm

>  <Rbt.Receptor>
prm/pocket_docking_6.prm

>  <SCORE>
-36.421

>  <SCORE.INTER>
-35.508

>  <SCORE.INTER.CONST>
1

>  <SCORE.INTER.POLAR>
-2.49465

>  <SCORE.INTER.ROT>
10

>  <SCORE.INTER.SOLV>
10.1463

>  <SCORE.INTER.VDW>
-29.0052

>  <SCORE.INTER.norm>
-1.1836

>  <SCORE.INTRA>
-0.913047

>  <SCORE.INTRA.DIHEDRAL>
-6.05462

>  <SCORE.INTRA.DIHEDRAL.0>
18.0451

>  <SCORE.INTRA.POLAR>
0.196815

>  <SCORE.INTRA.POLAR.0>
-0.196815

>  <SCORE.INTRA.REPUL>
0

>  <SCORE.INTRA.REPUL.0>
0

>  <SCORE.INTRA.SOLV>
-0.350046

>  <SCORE.INTRA.SOLV.lig_0>
-14.7906

>  <SCORE.INTRA.VDW>
1.62012

>  <SCORE.INTRA.VDW.0>
-0.411701

>  <SCORE.INTRA.norm>
-0.0304349

>  <SCORE.RESTR>
0

>  <SCORE.RESTR.CAVITY>
0

>  <SCORE.RESTR.norm>
0

>  <SCORE.SYSTEM>
0

>  <SCORE.SYSTEM.CONST>
0

>  <SCORE.SYSTEM.DIHEDRAL>
0

>  <SCORE.SYSTEM.SOLV>
0

>  <SCORE.SYSTEM.norm>
0

>  <SCORE.heavy>
30

>  <SCORE.norm>
-1.21403

>  <RMSD>
9.183

$$$$
1uts_lig
 OpenBabel11021811413D
libRbt.so/2013.1/901 2013/11/27
 30 33  0  0  0  0  0  0  0  0999 V2000
   -1.0071    3.8631   13.6064 N   0  0  0  0  0  0  0  0  0  0  0  0
   -2.9098    2.7747   14.7164 C   0  0  0  0  0  0  0  0  0  0  0  0
    1.1283    2.4562   16.0174 C   0  0  0  0  0  0  0  0  0  0  0  0
   -2.1925    1.6189   15.4199 C   0  0  0  0  0  0  0  0  0  0  0  0
   -1.1070    1.1623   14.5995 O   0  0  0  0  0  0  0  0  0  0  0  0
   -2.0001    4.0043   14.6952 C   0  0  0  0  0  0  0  0  0  0  0  0
    0.5337    3.1119   17.2042 N   0  0  0  0  0  0  0  0  0  0  0  0
    0.8495    4.5648   17.1846 C   0  0  0  0  0  0  0  0  0  0  0  0
    0.1291    5.2670   18.3394 C   0  0  0  0  0  0  0  0  0  0  0  0
    0.6253    6.6565   18.4573 N   0  0  0  0  0  0  0  0  0  0  0  0
    2.0057    6.6402   19.0212 C   0  0  0  0  0  0  0  0  0  0  0  0
   -0.2884    7.4342   19.3411 C   0  0  0  0  0  0  0  0  0  0  0  0
    2.5230    8.0822   19.1487 C   0  0  0  0  0  0  0  0  0  0  0  0
    0.2306    8.8774   19.4726 C   0  0  0  0  0  0  0  0  0  0  0  0
    1.6102    8.8602   20.0336 N   0  0  0  0  0  0  0  0  0  0  0  0
    0.4772   -1.8756   16.1784 C   0  0  0  0  0  0  0  0  0  0  0  0
    4.9432   -4.7755   19.7161 N   0  0  0  0  0  0  0  0  0  0  0  0
    1.5738   -1.2951   16.8593 C   0  0  0  0  0  0  0  0  0  0  0  0
    1.7793    0.1092   16.8026 C   0  0  0  0  0  0  0  0  0  0  0  0
    0.8851    0.9343   16.0666 C   0  0  0  0  0  0  0  0  0  0  0  0
   -0.2107    0.3449   15.3673 C   0  0  0  0  0  0  0  0  0  0  0  0
   -0.4132   -1.0610   15.4302 C   0  0  0  0  0  0  0  0  0  0  0  0
    4.0398   -5.8587   19.8062 C   0  0  0  0  0  0  0  0  0  0  0  0
    2.8064   -5.5402   19.1941 C   0  0  0  0  0  0  0  0  0  0  0  0
    2.0403   -3.4134   17.9884 C   0  0  0  0  0  0  0  0  0  0  0  0
    2.4520   -2.1151   17.5817 C   0  0  0  0  0  0  0  0  0  0  0  0
    3.7579   -1.6526   17.9028 C   0  0  0  0  0  0  0  0  0  0  0  0
    4.6503   -2.4883   18.6272 C   0  0  0  0  0  0  0  0  0  0  0  0
    4.2380   -3.7992   19.0227 C   0  0  0  0  0  0  0  0  0  0  0  0
    2.9462   -4.2583   18.7065 C   0  0  0  0  0  0  0  0  0  0  0  0
  1  6  1  0  0  0  0
  2  4  1  0  0  0  0
  3  7  1  0  0  0  0
  4  5  1  0  0  0  0
  6  2  1  0  0  0  0
  7  8  1  0  0  0  0
  8  9  1  0  0  0  0
  9 10  1  0  0  0  0
 10 11  1  0  0  0  0
 10 12  1  0  0  0  0
 11 13  1  0  0  0  0
 13 15  1  0  0  0  0
 14 12  1  0  0  0  0
 15 14  1  0  0  0  0
 16 18  2  0  0  0  0
 16 22  1  0  0  0  0
 17 23  1  0  0  0  0
 17 29  1  0  0  0  0
 18 19  1  0  0  0  0
 18 26  1  0  0  0  0
 19 20  2  0  0  0  0
 20  3  1  0  0  0  0
 20 21  1  0  0  0  0
 21  5  1  0  0  0  0
 21 22  2  0  0  0  0
 23 24  2  0  0  0  0
 24 30  1  0  0  0  0
 25 26  2  0  0  0  0
 25 30  1  0  0  0  0
 26 27  1  0  0  0  0
 27 28  2  0  0  0  0
 28 29  1  0  0  0  0
 29 30  2  0  0  0  0
M  END
>  <CHROM.1>
-173.55348273,-69.39251481,176.49967337,164.53545720,79.66724301,174.81911766
170.34389017,-72.66713058,-19.90588103,-84.66073696,-89.52093938,1.13941097
1.51696383,17.39455554,1.95910418,-0.81034528,0.24959469

>  <Name>
1uts_lig

>  <RI>
0

>  <Rbt.Current_Directory>
/home/itssahil/PROJECTS/Mol_Feturizer/New_Systems/rnas/1uts

>  <Rbt.Executable>
rbdock ($Id: //depot/dev/client3/rdock/2013.1/src/exe/rbdock.cxx#4 $)

>  <Rbt.Library>
libRbt.so (2013.1, Build901 2013/11/27)

>  <Rbt.Parameter_File>
/export/apps/rDock/src/rDock_2013.1_src/data/scripts/dock_solv.prm

>  <Rbt.Receptor>
prm/pocket_docking_6.prm

>  <SCORE>
-26.6664

>  <SCORE.INTER>
-20.617

>  <SCORE.INTER.CONST>
1

>  <SCORE.INTER.POLAR>
-2.00553

>  <SCORE.INTER.ROT>
10

>  <SCORE.INTER.SOLV>
6.46895

>  <SCORE.INTER.VDW>
-19.4825

>  <SCORE.INTER.norm>
-0.687232

>  <SCORE.INTRA>
-6.04946

>  <SCORE.INTRA.DIHEDRAL>
-8.24737

>  <SCORE.INTRA.DIHEDRAL.0>
18.0451

>  <SCORE.INTRA.POLAR>
-0.421495

>  <SCORE.INTRA.POLAR.0>
-0.196815

>  <SCORE.INTRA.REPUL>
0

>  <SCORE.INTRA.REPUL.0>
0

>  <SCORE.INTRA.SOLV>
0.311913

>  <SCORE.INTRA.SOLV.lig_0>
-14.7906

>  <SCORE.INTRA.VDW>
-0.648656

>  <SCORE.INTRA.VDW.0>
-0.411701

>  <SCORE.INTRA.norm>
-0.201649

>  <SCORE.RESTR>
0

>  <SCORE.RESTR.CAVITY>
0

>  <SCORE.RESTR.norm>
0

>  <SCORE.SYSTEM>
0

>  <SCORE.SYSTEM.CONST>
0

>  <SCORE.SYSTEM.DIHEDRAL>
0

>  <SCORE.SYSTEM.SOLV>
0

>  <SCORE.SYSTEM.norm>
0

>  <SCORE.heavy>
30

>  <SCORE.norm>
-0.888881

>  <RMSD>
9.220

$$$$
1uts_lig
 OpenBabel11021811413D
libRbt.so/2013.1/901 2013/11/27
 30 33  0  0  0  0  0  0  0  0999 V2000
   -3.3716    5.4033   18.9286 N   0  0  0  0  0  0  0  0  0  0  0  0
   -5.3767    4.6533   17.7228 C   0  0  0  0  0  0  0  0  0  0  0  0
   -2.3234    3.7810   14.9669 C   0  0  0  0  0  0  0  0  0  0  0  0
   -5.9498    3.5382   16.8433 C   0  0  0  0  0  0  0  0  0  0  0  0
   -5.1692    3.4291   15.6439 O   0  0  0  0  0  0  0  0  0  0  0  0
   -3.8989    4.3749   18.0035 C   0  0  0  0  0  0  0  0  0  0  0  0
   -2.7835    4.1345   13.6048 N   0  0  0  0  0  0  0  0  0  0  0  0
   -1.8445    3.5735   12.5976 C   0  0  0  0  0  0  0  0  0  0  0  0
   -2.3166    3.9417   11.1879 C   0  0  0  0  0  0  0  0  0  0  0  0
   -1.4936    5.0569   10.6683 N   0  0  0  0  0  0  0  0  0  0  0  0
   -2.0417    6.3493   11.1716 C   0  0  0  0  0  0  0  0  0  0  0  0
   -1.5094    5.0302    9.1784 C   0  0  0  0  0  0  0  0  0  0  0  0
   -1.1916    7.5103   10.6307 C   0  0  0  0  0  0  0  0  0  0  0  0
   -0.6615    6.1947    8.6357 C   0  0  0  0  0  0  0  0  0  0  0  0
   -1.2080    7.4849    9.1406 N   0  0  0  0  0  0  0  0  0  0  0  0
   -3.9560   -0.1030   16.1768 C   0  0  0  0  0  0  0  0  0  0  0  0
    0.8451   -4.4154   16.2655 N   0  0  0  0  0  0  0  0  0  0  0  0
   -2.5863    0.0201   15.8423 C   0  0  0  0  0  0  0  0  0  0  0  0
   -2.0638    1.2815   15.4506 C   0  0  0  0  0  0  0  0  0  0  0  0
   -2.9116    2.4217   15.3964 C   0  0  0  0  0  0  0  0  0  0  0  0
   -4.2960    2.2920   15.7185 C   0  0  0  0  0  0  0  0  0  0  0  0
   -4.8128    1.0275   16.1129 C   0  0  0  0  0  0  0  0  0  0  0  0
    1.7064   -3.8771   17.2484 C   0  0  0  0  0  0  0  0  0  0  0  0
    1.3171   -2.5638   17.5968 C   0  0  0  0  0  0  0  0  0  0  0  0
   -0.6341   -1.1250   16.7681 C   0  0  0  0  0  0  0  0  0  0  0  0
   -1.7569   -1.1089   15.8966 C   0  0  0  0  0  0  0  0  0  0  0  0
   -2.0410   -2.2420   15.0857 C   0  0  0  0  0  0  0  0  0  0  0  0
   -1.2048   -3.3893   15.1485 C   0  0  0  0  0  0  0  0  0  0  0  0
   -0.0841   -3.4078   16.0365 C   0  0  0  0  0  0  0  0  0  0  0  0
    0.1990   -2.2875   16.8391 C   0  0  0  0  0  0  0  0  0  0  0  0
  1  6  1  0  0  0  0
  2  4  1  0  0  0  0
  3  7  1  0  0  0  0
  4  5  1  0  0  0  0
  6  2  1  0  0  0  0
  7  8  1  0  0  0  0
  8  9  1  0  0  0  0
  9 10  1  0  0  0  0
 10 11  1  0  0  0  0
 10 12  1  0  0  0  0
 11 13  1  0  0  0  0
 13 15  1  0  0  0  0
 14 12  1  0  0  0  0
 15 14  1  0  0  0  0
 16 18  2  0  0  0  0
 16 22  1  0  0  0  0
 17 23  1  0  0  0  0
 17 29  1  0  0  0  0
 18 19  1  0  0  0  0
 18 26  1  0  0  0  0
 19 20  2  0  0  0  0
 20  3  1  0  0  0  0
 20 21  1  0  0  0  0
 21  5  1  0  0  0  0
 21 22  2  0  0  0  0
 23 24  2  0  0  0  0
 24 30  1  0  0  0  0
 25 26  2  0  0  0  0
 25 30  1  0  0  0  0
 26 27  1  0  0  0  0
 27 28  2  0  0  0  0
 28 29  1  0  0  0  0
 29 30  2  0  0  0  0
M  END
>  <CHROM.1>
-171.58338942,-56.02375056,-88.68536448,103.33134407,-176.15320343,-179.83804850
102.50353826,-83.62317129,-119.57400542,107.16848803,-131.25478756,-2.14695655
2.09567508,14.61322381,1.78697252,0.87220071,-0.74841360

>  <Name>
1uts_lig

>  <RI>
0

>  <Rbt.Current_Directory>
/home/itssahil/PROJECTS/Mol_Feturizer/New_Systems/rnas/1uts

>  <Rbt.Executable>
rbdock ($Id: //depot/dev/client3/rdock/2013.1/src/exe/rbdock.cxx#4 $)

>  <Rbt.Library>
libRbt.so (2013.1, Build901 2013/11/27)

>  <Rbt.Parameter_File>
/export/apps/rDock/src/rDock_2013.1_src/data/scripts/dock_solv.prm

>  <Rbt.Receptor>
prm/pocket_docking_8.prm

>  <SCORE>
-39.4746

>  <SCORE.INTER>
-41.2369

>  <SCORE.INTER.CONST>
1

>  <SCORE.INTER.POLAR>
-3.07906

>  <SCORE.INTER.ROT>
10

>  <SCORE.INTER.SOLV>
11.4156

>  <SCORE.INTER.VDW>
-31.2996

>  <SCORE.INTER.norm>
-1.37456

>  <SCORE.INTRA>
1.76229

>  <SCORE.INTRA.DIHEDRAL>
2.61524

>  <SCORE.INTRA.DIHEDRAL.0>
18.0451

>  <SCORE.INTRA.POLAR>
0.196815

>  <SCORE.INTRA.POLAR.0>
-0.196815

>  <SCORE.INTRA.REPUL>
0

>  <SCORE.INTRA.REPUL.0>
0

>  <SCORE.INTRA.SOLV>
-0.275314

>  <SCORE.INTRA.SOLV.lig_0>
-14.7906

>  <SCORE.INTRA.VDW>
-0.076843

>  <SCORE.INTRA.VDW.0>
-0.411701

>  <SCORE.INTRA.norm>
0.058743

>  <SCORE.RESTR>
0

>  <SCORE.RESTR.CAVITY>
0

>  <SCORE.RESTR.norm>
0

>  <SCORE.SYSTEM>
0

>  <SCORE.SYSTEM.CONST>
0

>  <SCORE.SYSTEM.DIHEDRAL>
0

>  <SCORE.SYSTEM.SOLV>
0

>  <SCORE.SYSTEM.norm>
0

>  <SCORE.heavy>
30

>  <SCORE.norm>
-1.31582

>  <RMSD>
9.273

$$$$
1uts_lig
 OpenBabel11021811413D
libRbt.so/2013.1/901 2013/11/27
 30 33  0  0  0  0  0  0  0  0999 V2000
   -1.8519   -2.7107   15.0809 N   0  0  0  0  0  0  0  0  0  0  0  0
   -2.7913   -0.5906   15.8931 C   0  0  0  0  0  0  0  0  0  0  0  0
   -2.7032    3.7701   15.2212 C   0  0  0  0  0  0  0  0  0  0  0  0
   -2.4923    0.6508   16.7386 C   0  0  0  0  0  0  0  0  0  0  0  0
   -1.3559    1.3365   16.1924 O   0  0  0  0  0  0  0  0  0  0  0  0
   -1.6350   -1.5845   16.0169 C   0  0  0  0  0  0  0  0  0  0  0  0
   -2.0192    4.3666   14.0514 N   0  0  0  0  0  0  0  0  0  0  0  0
   -2.2519    3.5214   12.8504 C   0  0  0  0  0  0  0  0  0  0  0  0
   -2.9163    4.3554   11.7511 C   0  0  0  0  0  0  0  0  0  0  0  0
   -1.9342    5.3161   11.2001 N   0  0  0  0  0  0  0  0  0  0  0  0
   -2.5075    6.6917   11.2541 C   0  0  0  0  0  0  0  0  0  0  0  0
   -1.6121    4.9417    9.7941 C   0  0  0  0  0  0  0  0  0  0  0  0
   -1.4916    7.6919   10.6790 C   0  0  0  0  0  0  0  0  0  0  0  0
   -0.5977    5.9448    9.2159 C   0  0  0  0  0  0  0  0  0  0  0  0
   -1.1699    7.3188    9.2724 N   0  0  0  0  0  0  0  0  0  0  0  0
   -0.0505    3.8238   18.7104 C   0  0  0  0  0  0  0  0  0  0  0  0
    0.5095    9.8875   20.8230 N   0  0  0  0  0  0  0  0  0  0  0  0
   -0.6647    5.0187   18.2650 C   0  0  0  0  0  0  0  0  0  0  0  0
   -1.5228    4.9943   17.1334 C   0  0  0  0  0  0  0  0  0  0  0  0
   -1.7694    3.7729   16.4483 C   0  0  0  0  0  0  0  0  0  0  0  0
   -1.1362    2.5722   16.8893 C   0  0  0  0  0  0  0  0  0  0  0  0
   -0.2807    2.6021   18.0246 C   0  0  0  0  0  0  0  0  0  0  0  0
    1.7050   10.1688   20.1234 C   0  0  0  0  0  0  0  0  0  0  0  0
    2.0065    9.1388   19.2037 C   0  0  0  0  0  0  0  0  0  0  0  0
    0.7452    6.9811   18.6402 C   0  0  0  0  0  0  0  0  0  0  0  0
   -0.4156    6.2194   18.9446 C   0  0  0  0  0  0  0  0  0  0  0  0
   -1.3268    6.6807   19.9342 C   0  0  0  0  0  0  0  0  0  0  0  0
   -1.0779    7.9026   20.6158 C   0  0  0  0  0  0  0  0  0  0  0  0
    0.0836    8.6736   20.2974 C   0  0  0  0  0  0  0  0  0  0  0  0
    0.9865    8.2185   19.3191 C   0  0  0  0  0  0  0  0  0  0  0  0
  1  6  1  0  0  0  0
  2  4  1  0  0  0  0
  3  7  1  0  0  0  0
  4  5  1  0  0  0  0
  6  2  1  0  0  0  0
  7  8  1  0  0  0  0
  8  9  1  0  0  0  0
  9 10  1  0  0  0  0
 10 11  1  0  0  0  0
 10 12  1  0  0  0  0
 11 13  1  0  0  0  0
 13 15  1  0  0  0  0
 14 12  1  0  0  0  0
 15 14  1  0  0  0  0
 16 18  2  0  0  0  0
 16 22  1  0  0  0  0
 17 23  1  0  0  0  0
 17 29  1  0  0  0  0
 18 19  1  0  0  0  0
 18 26  1  0  0  0  0
 19 20  2  0  0  0  0
 20  3  1  0  0  0  0
 20 21  1  0  0  0  0
 21  5  1  0  0  0  0
 21 22  2  0  0  0  0
 23 24  2  0  0  0  0
 24 30  1  0  0  0  0
 25 26  2  0  0  0  0
 25 30  1  0  0  0  0
 26 27  1  0  0  0  0
 27 28  2  0  0  0  0
 28 29  1  0  0  0  0
 29 30  2  0  0  0  0
M  END
>  <CHROM.1>
-179.83306471,65.53003856,134.74359217,174.39572104,-173.54077370,122.19776659
71.29455498,-126.80364967,83.79964455,74.66016735,-89.44916633,-1.09810753
4.81908744,15.77405559,2.83421589,-1.30547844,-0.89227775

>  <Name>
1uts_lig

>  <RI>
0

>  <Rbt.Current_Directory>
/home/itssahil/PROJECTS/Mol_Feturizer/New_Systems/rnas/1uts

>  <Rbt.Executable>
rbdock ($Id: //depot/dev/client3/rdock/2013.1/src/exe/rbdock.cxx#4 $)

>  <Rbt.Library>
libRbt.so (2013.1, Build901 2013/11/27)

>  <Rbt.Parameter_File>
/export/apps/rDock/src/rDock_2013.1_src/data/scripts/dock_solv.prm

>  <Rbt.Receptor>
prm/pocket_docking_8.prm

>  <SCORE>
-32.2509

>  <SCORE.INTER>
-33.5793

>  <SCORE.INTER.CONST>
1

>  <SCORE.INTER.POLAR>
-2.41672

>  <SCORE.INTER.ROT>
10

>  <SCORE.INTER.SOLV>
9.31752

>  <SCORE.INTER.VDW>
-27.703

>  <SCORE.INTER.norm>
-1.11931

>  <SCORE.INTRA>
1.32848

>  <SCORE.INTRA.DIHEDRAL>
3.27914

>  <SCORE.INTRA.DIHEDRAL.0>
18.0451

>  <SCORE.INTRA.POLAR>
0.196815

>  <SCORE.INTRA.POLAR.0>
-0.196815

>  <SCORE.INTRA.REPUL>
0

>  <SCORE.INTRA.REPUL.0>
0

>  <SCORE.INTRA.SOLV>
-0.33088

>  <SCORE.INTRA.SOLV.lig_0>
-14.7906

>  <SCORE.INTRA.VDW>
-0.814821

>  <SCORE.INTRA.VDW.0>
-0.411701

>  <SCORE.INTRA.norm>
0.0442826

>  <SCORE.RESTR>
0

>  <SCORE.RESTR.CAVITY>
0

>  <SCORE.RESTR.norm>
0

>  <SCORE.SYSTEM>
0

>  <SCORE.SYSTEM.CONST>
0

>  <SCORE.SYSTEM.DIHEDRAL>
0

>  <SCORE.SYSTEM.SOLV>
0

>  <SCORE.SYSTEM.norm>
0

>  <SCORE.heavy>
30

>  <SCORE.norm>
-1.07503

>  <RMSD>
9.293

$$$$
1uts_lig
 OpenBabel11021811413D
libRbt.so/2013.1/901 2013/11/27
 30 33  0  0  0  0  0  0  0  0999 V2000
   -3.7213    3.9772   13.7544 N   0  0  0  0  0  0  0  0  0  0  0  0
   -1.6493    2.7931   14.3394 C   0  0  0  0  0  0  0  0  0  0  0  0
    2.7558    2.2688   16.8402 C   0  0  0  0  0  0  0  0  0  0  0  0
   -1.0300    1.7978   15.3248 C   0  0  0  0  0  0  0  0  0  0  0  0
    0.3942    1.7768   15.1485 O   0  0  0  0  0  0  0  0  0  0  0  0
   -3.0715    3.1372   14.7858 C   0  0  0  0  0  0  0  0  0  0  0  0
    1.7075    3.3112   16.9222 N   0  0  0  0  0  0  0  0  0  0  0  0
    2.3188    4.6057   17.3240 C   0  0  0  0  0  0  0  0  0  0  0  0
    1.2599    5.4970   17.9797 C   0  0  0  0  0  0  0  0  0  0  0  0
    1.9011    6.3517   19.0040 N   0  0  0  0  0  0  0  0  0  0  0  0
    2.2858    5.5124   20.1751 C   0  0  0  0  0  0  0  0  0  0  0  0
    0.9507    7.4213   19.4205 C   0  0  0  0  0  0  0  0  0  0  0  0
    2.9487    6.3976   21.2429 C   0  0  0  0  0  0  0  0  0  0  0  0
    1.6121    8.3062   20.4925 C   0  0  0  0  0  0  0  0  0  0  0  0
    1.9982    7.4668   21.6607 N   0  0  0  0  0  0  0  0  0  0  0  0
    0.9706   -1.7159   16.4525 C   0  0  0  0  0  0  0  0  0  0  0  0
    4.4314   -5.7614   20.1459 N   0  0  0  0  0  0  0  0  0  0  0  0
    2.1162   -1.5250   17.2615 C   0  0  0  0  0  0  0  0  0  0  0  0
    2.6899   -0.2313   17.3824 C   0  0  0  0  0  0  0  0  0  0  0  0
    2.1154    0.8735   16.6958 C   0  0  0  0  0  0  0  0  0  0  0  0
    0.9700    0.6757   15.8676 C   0  0  0  0  0  0  0  0  0  0  0  0
    0.3981   -0.6210   15.7528 C   0  0  0  0  0  0  0  0  0  0  0  0
    5.0873   -4.9730   21.1185 C   0  0  0  0  0  0  0  0  0  0  0  0
    4.8701   -3.5964   20.8832 C   0  0  0  0  0  0  0  0  0  0  0  0
    3.5080   -2.4067   19.0685 C   0  0  0  0  0  0  0  0  0  0  0  0
    2.6779   -2.6193   17.9343 C   0  0  0  0  0  0  0  0  0  0  0  0
    2.4130   -3.9432   17.4879 C   0  0  0  0  0  0  0  0  0  0  0  0
    2.9755   -5.0519   18.1763 C   0  0  0  0  0  0  0  0  0  0  0  0
    3.7988   -4.8354   19.3253 C   0  0  0  0  0  0  0  0  0  0  0  0
    4.0626   -3.5263   19.7680 C   0  0  0  0  0  0  0  0  0  0  0  0
  1  6  1  0  0  0  0
  2  4  1  0  0  0  0
  3  7  1  0  0  0  0
  4  5  1  0  0  0  0
  6  2  1  0  0  0  0
  7  8  1  0  0  0  0
  8  9  1  0  0  0  0
  9 10  1  0  0  0  0
 10 11  1  0  0  0  0
 10 12  1  0  0  0  0
 11 13  1  0  0  0  0
 13 15  1  0  0  0  0
 14 12  1  0  0  0  0
 15 14  1  0  0  0  0
 16 18  2  0  0  0  0
 16 22  1  0  0  0  0
 17 23  1  0  0  0  0
 17 29  1  0  0  0  0
 18 19  1  0  0  0  0
 18 26  1  0  0  0  0
 19 20  2  0  0  0  0
 20  3  1  0  0  0  0
 20 21  1  0  0  0  0
 21  5  1  0  0  0  0
 21 22  2  0  0  0  0
 23 24  2  0  0  0  0
 24 30  1  0  0  0  0
 25 26  2  0  0  0  0
 25 30  1  0  0  0  0
 26 27  1  0  0  0  0
 27 28  2  0  0  0  0
 28 29  1  0  0  0  0
 29 30  2  0  0  0  0
M  END
>  <CHROM.1>
163.94517315,-163.11497715,169.03358029,-168.78963268,-173.67319663,-155.92844584
148.33143009,-71.69737078,-158.77573504,-141.06788537,-132.57205628,1.70343932
1.26901529,17.89744753,2.02619539,-0.86834364,0.27602399

>  <Name>
1uts_lig

>  <RI>
0

>  <Rbt.Current_Directory>
/home/itssahil/PROJECTS/Mol_Feturizer/New_Systems/rnas/1uts

>  <Rbt.Executable>
rbdock ($Id: //depot/dev/client3/rdock/2013.1/src/exe/rbdock.cxx#4 $)

>  <Rbt.Library>
libRbt.so (2013.1, Build901 2013/11/27)

>  <Rbt.Parameter_File>
/export/apps/rDock/src/rDock_2013.1_src/data/scripts/dock_solv.prm

>  <Rbt.Receptor>
prm/pocket_docking_4.prm

>  <SCORE>
-14.7029

>  <SCORE.INTER>
-12.7598

>  <SCORE.INTER.CONST>
1

>  <SCORE.INTER.POLAR>
-0.737645

>  <SCORE.INTER.ROT>
10

>  <SCORE.INTER.SOLV>
5.4913

>  <SCORE.INTER.VDW>
-18.1448

>  <SCORE.INTER.norm>
-0.425326

>  <SCORE.INTRA>
-2.14929

>  <SCORE.INTRA.DIHEDRAL>
-6.79986

>  <SCORE.INTRA.DIHEDRAL.0>
18.0451

>  <SCORE.INTRA.POLAR>
-0.171569

>  <SCORE.INTRA.POLAR.0>
-0.196815

>  <SCORE.INTRA.REPUL>
0

>  <SCORE.INTRA.REPUL.0>
0

>  <SCORE.INTRA.SOLV>
-0.276119

>  <SCORE.INTRA.SOLV.lig_0>
-14.7906

>  <SCORE.INTRA.VDW>
1.97203

>  <SCORE.INTRA.VDW.0>
-0.411701

>  <SCORE.INTRA.norm>
-0.0716431

>  <SCORE.RESTR>
0.206152

>  <SCORE.RESTR.CAVITY>
0.206152

>  <SCORE.RESTR.norm>
0.00687173

>  <SCORE.SYSTEM>
0

>  <SCORE.SYSTEM.CONST>
0

>  <SCORE.SYSTEM.DIHEDRAL>
0

>  <SCORE.SYSTEM.SOLV>
0

>  <SCORE.SYSTEM.norm>
0

>  <SCORE.heavy>
30

>  <SCORE.norm>
-0.490098

>  <RMSD>
9.310

$$$$
1uts_lig
 OpenBabel11021811413D
libRbt.so/2013.1/901 2013/11/27
 30 33  0  0  0  0  0  0  0  0999 V2000
   -1.6400    2.3256   20.3423 N   0  0  0  0  0  0  0  0  0  0  0  0
   -2.4302    2.7296   18.0511 C   0  0  0  0  0  0  0  0  0  0  0  0
   -1.3775    3.5368   14.4718 C   0  0  0  0  0  0  0  0  0  0  0  0
   -2.5611    4.2483   18.1991 C   0  0  0  0  0  0  0  0  0  0  0  0
   -2.2209    4.8788   16.9555 O   0  0  0  0  0  0  0  0  0  0  0  0
   -2.7405    2.0567   19.3895 C   0  0  0  0  0  0  0  0  0  0  0  0
   -1.7494    4.5883   13.4980 N   0  0  0  0  0  0  0  0  0  0  0  0
   -2.4425    3.9720   12.3358 C   0  0  0  0  0  0  0  0  0  0  0  0
   -3.0149    5.0688   11.4331 C   0  0  0  0  0  0  0  0  0  0  0  0
   -1.9308    5.6377   10.6012 N   0  0  0  0  0  0  0  0  0  0  0  0
   -2.3313    6.9953   10.1317 C   0  0  0  0  0  0  0  0  0  0  0  0
   -1.6764    4.7397    9.4394 C   0  0  0  0  0  0  0  0  0  0  0  0
   -1.2091    7.5879    9.2641 C   0  0  0  0  0  0  0  0  0  0  0  0
   -0.5555    5.3340    8.5677 C   0  0  0  0  0  0  0  0  0  0  0  0
   -0.9551    6.6908    8.1012 N   0  0  0  0  0  0  0  0  0  0  0  0
    1.5230    5.0867   17.3701 C   0  0  0  0  0  0  0  0  0  0  0  0
    7.4879    4.0450   15.1858 N   0  0  0  0  0  0  0  0  0  0  0  0
    1.9693    4.4321   16.1972 C   0  0  0  0  0  0  0  0  0  0  0  0
    1.0241    3.9318   15.2624 C   0  0  0  0  0  0  0  0  0  0  0  0
   -0.3691    4.0892   15.4994 C   0  0  0  0  0  0  0  0  0  0  0  0
   -0.8172    4.7351   16.6907 C   0  0  0  0  0  0  0  0  0  0  0  0
    0.1336    5.2366   17.6213 C   0  0  0  0  0  0  0  0  0  0  0  0
    7.5867    5.1618   14.3251 C   0  0  0  0  0  0  0  0  0  0  0  0
    6.3240    5.7683   14.1375 C   0  0  0  0  0  0  0  0  0  0  0  0
    4.0275    5.1796   15.1088 C   0  0  0  0  0  0  0  0  0  0  0  0
    3.3445    4.2794   15.9711 C   0  0  0  0  0  0  0  0  0  0  0  0
    4.0595    3.2286   16.6090 C   0  0  0  0  0  0  0  0  0  0  0  0
    5.4552    3.0806   16.3862 C   0  0  0  0  0  0  0  0  0  0  0  0
    6.1421    3.9962   15.5291 C   0  0  0  0  0  0  0  0  0  0  0  0
    5.4363    5.0360   14.8966 C   0  0  0  0  0  0  0  0  0  0  0  0
  1  6  1  0  0  0  0
  2  4  1  0  0  0  0
  3  7  1  0  0  0  0
  4  5  1  0  0  0  0
  6  2  1  0  0  0  0
  7  8  1  0  0  0  0
  8  9  1  0  0  0  0
  9 10  1  0  0  0  0
 10 11  1  0  0  0  0
 10 12  1  0  0  0  0
 11 13  1  0  0  0  0
 13 15  1  0  0  0  0
 14 12  1  0  0  0  0
 15 14  1  0  0  0  0
 16 18  2  0  0  0  0
 16 22  1  0  0  0  0
 17 23  1  0  0  0  0
 17 29  1  0  0  0  0
 18 19  1  0  0  0  0
 18 26  1  0  0  0  0
 19 20  2  0  0  0  0
 20  3  1  0  0  0  0
 20 21  1  0  0  0  0
 21  5  1  0  0  0  0
 21 22  2  0  0  0  0
 23 24  2  0  0  0  0
 24 30  1  0  0  0  0
 25 26  2  0  0  0  0
 25 30  1  0  0  0  0
 26 27  1  0  0  0  0
 27 28  2  0  0  0  0
 28 29  1  0  0  0  0
 29 30  2  0  0  0  0
M  END
>  <CHROM.1>
63.14308776,177.86496655,166.11791910,-69.07081194,-70.96254965,171.44648322
78.69621267,-158.46889223,-98.74932969,-93.12057260,121.52292733,0.66758428
4.59316300,14.53508951,0.85742783,0.03618225,1.87069284

>  <Name>
1uts_lig

>  <RI>
0

>  <Rbt.Current_Directory>
/home/itssahil/PROJECTS/Mol_Feturizer/New_Systems/rnas/1uts

>  <Rbt.Executable>
rbdock ($Id: //depot/dev/client3/rdock/2013.1/src/exe/rbdock.cxx#4 $)

>  <Rbt.Library>
libRbt.so (2013.1, Build901 2013/11/27)

>  <Rbt.Parameter_File>
/export/apps/rDock/src/rDock_2013.1_src/data/scripts/dock_solv.prm

>  <Rbt.Receptor>
prm/pocket_docking_8.prm

>  <SCORE>
-39.9145

>  <SCORE.INTER>
-37.2501

>  <SCORE.INTER.CONST>
1

>  <SCORE.INTER.POLAR>
-1.93527

>  <SCORE.INTER.ROT>
10

>  <SCORE.INTER.SOLV>
8.76133

>  <SCORE.INTER.VDW>
-31.5696

>  <SCORE.INTER.norm>
-1.24167

>  <SCORE.INTRA>
-2.74362

>  <SCORE.INTRA.DIHEDRAL>
-5.44888

>  <SCORE.INTRA.DIHEDRAL.0>
18.0451

>  <SCORE.INTRA.POLAR>
0.196815

>  <SCORE.INTRA.POLAR.0>
-0.196815

>  <SCORE.INTRA.REPUL>
0

>  <SCORE.INTRA.REPUL.0>
0

>  <SCORE.INTRA.SOLV>
-0.293342

>  <SCORE.INTRA.SOLV.lig_0>
-14.7906

>  <SCORE.INTRA.VDW>
-0.541677

>  <SCORE.INTRA.VDW.0>
-0.411701

>  <SCORE.INTRA.norm>
-0.0914539

>  <SCORE.RESTR>
0.0792133

>  <SCORE.RESTR.CAVITY>
0.0792133

>  <SCORE.RESTR.norm>
0.00264044

>  <SCORE.SYSTEM>
0

>  <SCORE.SYSTEM.CONST>
0

>  <SCORE.SYSTEM.DIHEDRAL>
0

>  <SCORE.SYSTEM.SOLV>
0

>  <SCORE.SYSTEM.norm>
0

>  <SCORE.heavy>
30

>  <SCORE.norm>
-1.33048

>  <RMSD>
9.367

$$$$
1uts_lig
 OpenBabel11021811413D
libRbt.so/2013.1/901 2013/11/27
 30 33  0  0  0  0  0  0  0  0999 V2000
    0.7199   -3.2372   15.4549 N   0  0  0  0  0  0  0  0  0  0  0  0
   -0.2120   -0.9758   15.6894 C   0  0  0  0  0  0  0  0  0  0  0  0
   -1.9768    3.7405   14.9218 C   0  0  0  0  0  0  0  0  0  0  0  0
   -0.0955    0.2664   16.5773 C   0  0  0  0  0  0  0  0  0  0  0  0
   -1.0809    1.2308   16.1787 O   0  0  0  0  0  0  0  0  0  0  0  0
    0.3469   -2.1903   16.4329 C   0  0  0  0  0  0  0  0  0  0  0  0
   -3.3564    4.2666   15.0320 N   0  0  0  0  0  0  0  0  0  0  0  0
   -4.3302    3.1510   14.8970 C   0  0  0  0  0  0  0  0  0  0  0  0
   -5.6777    3.5647   15.4957 C   0  0  0  0  0  0  0  0  0  0  0  0
   -6.7727    2.9206   14.7361 N   0  0  0  0  0  0  0  0  0  0  0  0
   -6.9854    3.6584   13.4577 C   0  0  0  0  0  0  0  0  0  0  0  0
   -8.0168    2.9324   15.5565 C   0  0  0  0  0  0  0  0  0  0  0  0
   -8.1248    2.9945   12.6676 C   0  0  0  0  0  0  0  0  0  0  0  0
   -9.1594    2.2712   14.7648 C   0  0  0  0  0  0  0  0  0  0  0  0
   -9.3696    3.0071   13.4871 N   0  0  0  0  0  0  0  0  0  0  0  0
   -0.0633    3.6761   18.8650 C   0  0  0  0  0  0  0  0  0  0  0  0
    0.3132    9.6066   21.2749 N   0  0  0  0  0  0  0  0  0  0  0  0
   -0.4631    4.9052   18.2881 C   0  0  0  0  0  0  0  0  0  0  0  0
   -1.0822    4.9189   17.0098 C   0  0  0  0  0  0  0  0  0  0  0  0
   -1.3045    3.7018   16.3091 C   0  0  0  0  0  0  0  0  0  0  0  0
   -0.8858    2.4650   16.8855 C   0  0  0  0  0  0  0  0  0  0  0  0
   -0.2694    2.4571   18.1668 C   0  0  0  0  0  0  0  0  0  0  0  0
   -0.5867    9.3001   22.3207 C   0  0  0  0  0  0  0  0  0  0  0  0
   -1.2146    8.0536   22.0978 C   0  0  0  0  0  0  0  0  0  0  0  0
   -0.9391    6.3615   20.1939 C   0  0  0  0  0  0  0  0  0  0  0  0
   -0.2393    6.1013   18.9843 C   0  0  0  0  0  0  0  0  0  0  0  0
    0.6927    7.0527   18.4858 C   0  0  0  0  0  0  0  0  0  0  0  0
    0.9255    8.2606   19.1973 C   0  0  0  0  0  0  0  0  0  0  0  0
    0.2302    8.5133   20.4212 C   0  0  0  0  0  0  0  0  0  0  0  0
   -0.6927    7.5735   20.9156 C   0  0  0  0  0  0  0  0  0  0  0  0
  1  6  1  0  0  0  0
  2  4  1  0  0  0  0
  3  7  1  0  0  0  0
  4  5  1  0  0  0  0
  6  2  1  0  0  0  0
  7  8  1  0  0  0  0
  8  9  1  0  0  0  0
  9 10  1  0  0  0  0
 10 11  1  0  0  0  0
 10 12  1  0  0  0  0
 11 13  1  0  0  0  0
 13 15  1  0  0  0  0
 14 12  1  0  0  0  0
 15 14  1  0  0  0  0
 16 18  2  0  0  0  0
 16 22  1  0  0  0  0
 17 23  1  0  0  0  0
 17 29  1  0  0  0  0
 18 19  1  0  0  0  0
 18 26  1  0  0  0  0
 19 20  2  0  0  0  0
 20  3  1  0  0  0  0
 20 21  1  0  0  0  0
 21  5  1  0  0  0  0
 21 22  2  0  0  0  0
 23 24  2  0  0  0  0
 24 30  1  0  0  0  0
 25 26  2  0  0  0  0
 25 30  1  0  0  0  0
 26 27  1  0  0  0  0
 27 28  2  0  0  0  0
 28 29  1  0  0  0  0
 29 30  2  0  0  0  0
M  END
>  <CHROM.1>
-157.95010195,-155.39707944,-105.17889041,-172.96833294,-158.39034835,159.69631137
147.08608654,-77.94465556,-66.89327580,-63.40787998,152.89837387,-2.42938909
3.87216595,17.02482471,-2.27257487,-0.41552474,0.48475206

>  <Name>
1uts_lig

>  <RI>
0

>  <Rbt.Current_Directory>
/home/itssahil/PROJECTS/Mol_Feturizer/New_Systems/rnas/1uts

>  <Rbt.Executable>
rbdock ($Id: //depot/dev/client3/rdock/2013.1/src/exe/rbdock.cxx#4 $)

>  <Rbt.Library>
libRbt.so (2013.1, Build901 2013/11/27)

>  <Rbt.Parameter_File>
/export/apps/rDock/src/rDock_2013.1_src/data/scripts/dock_solv.prm

>  <Rbt.Receptor>
prm/pocket_docking_7.prm

>  <SCORE>
-22.4124

>  <SCORE.INTER>
-25.4923

>  <SCORE.INTER.CONST>
1

>  <SCORE.INTER.POLAR>
-1.80068

>  <SCORE.INTER.ROT>
10

>  <SCORE.INTER.SOLV>
7.13678

>  <SCORE.INTER.VDW>
-23.6382

>  <SCORE.INTER.norm>
-0.849742

>  <SCORE.INTRA>
3.07987

>  <SCORE.INTRA.DIHEDRAL>
0.582255

>  <SCORE.INTRA.DIHEDRAL.0>
18.0451

>  <SCORE.INTRA.POLAR>
0.196815

>  <SCORE.INTRA.POLAR.0>
-0.196815

>  <SCORE.INTRA.REPUL>
0

>  <SCORE.INTRA.REPUL.0>
0

>  <SCORE.INTRA.SOLV>
-0.623267

>  <SCORE.INTRA.SOLV.lig_0>
-14.7906

>  <SCORE.INTRA.VDW>
2.43121

>  <SCORE.INTRA.VDW.0>
-0.411701

>  <SCORE.INTRA.norm>
0.102662

>  <SCORE.RESTR>
0

>  <SCORE.RESTR.CAVITY>
0

>  <SCORE.RESTR.norm>
0

>  <SCORE.SYSTEM>
0

>  <SCORE.SYSTEM.CONST>
0

>  <SCORE.SYSTEM.DIHEDRAL>
0

>  <SCORE.SYSTEM.SOLV>
0

>  <SCORE.SYSTEM.norm>
0

>  <SCORE.heavy>
30

>  <SCORE.norm>
-0.74708

>  <RMSD>
9.385

$$$$
1uts_lig
 OpenBabel11021811413D
libRbt.so/2013.1/901 2013/11/27
 30 33  0  0  0  0  0  0  0  0999 V2000
    2.5702   -0.2598   16.0661 N   0  0  0  0  0  0  0  0  0  0  0  0
    0.7530   -0.3201   17.7188 C   0  0  0  0  0  0  0  0  0  0  0  0
   -0.1537    3.5054   15.6728 C   0  0  0  0  0  0  0  0  0  0  0  0
   -0.1179    0.5982   16.8565 C   0  0  0  0  0  0  0  0  0  0  0  0
   -0.8544    1.4908   17.7054 O   0  0  0  0  0  0  0  0  0  0  0  0
    2.2291    0.0045   17.4821 C   0  0  0  0  0  0  0  0  0  0  0  0
   -0.7356    4.7955   15.2379 N   0  0  0  0  0  0  0  0  0  0  0  0
   -1.9111    4.5450   14.3624 C   0  0  0  0  0  0  0  0  0  0  0  0
   -1.4792    4.5784   12.8934 C   0  0  0  0  0  0  0  0  0  0  0  0
   -2.6436    4.9184   12.0453 N   0  0  0  0  0  0  0  0  0  0  0  0
   -3.5170    3.7179   11.9038 C   0  0  0  0  0  0  0  0  0  0  0  0
   -2.1656    5.3742   10.7094 C   0  0  0  0  0  0  0  0  0  0  0  0
   -4.7257    4.0662   11.0201 C   0  0  0  0  0  0  0  0  0  0  0  0
   -3.3753    5.7197    9.8223 C   0  0  0  0  0  0  0  0  0  0  0  0
   -4.2483    4.5210    9.6834 N   0  0  0  0  0  0  0  0  0  0  0  0
    1.2453    3.8078   19.8160 C   0  0  0  0  0  0  0  0  0  0  0  0
    5.1207    8.9109   20.4031 N   0  0  0  0  0  0  0  0  0  0  0  0
    1.6193    4.7875   18.8654 C   0  0  0  0  0  0  0  0  0  0  0  0
    1.1628    4.6832   17.5244 C   0  0  0  0  0  0  0  0  0  0  0  0
    0.3288    3.5996   17.1344 C   0  0  0  0  0  0  0  0  0  0  0  0
   -0.0337    2.6040   18.0907 C   0  0  0  0  0  0  0  0  0  0  0  0
    0.4236    2.7152   19.4324 C   0  0  0  0  0  0  0  0  0  0  0  0
    6.2807    8.1146   20.5370 C   0  0  0  0  0  0  0  0  0  0  0  0
    5.9969    6.7580   20.2599 C   0  0  0  0  0  0  0  0  0  0  0  0
    3.8121    5.6181   19.5590 C   0  0  0  0  0  0  0  0  0  0  0  0
    2.4430    5.8522   19.2569 C   0  0  0  0  0  0  0  0  0  0  0  0
    1.9126    7.1687   19.3458 C   0  0  0  0  0  0  0  0  0  0  0  0
    2.7508    8.2486   19.7338 C   0  0  0  0  0  0  0  0  0  0  0  0
    4.1311    8.0121   20.0236 C   0  0  0  0  0  0  0  0  0  0  0  0
    4.6575    6.7103   19.9368 C   0  0  0  0  0  0  0  0  0  0  0  0
  1  6  1  0  0  0  0
  2  4  1  0  0  0  0
  3  7  1  0  0  0  0
  4  5  1  0  0  0  0
  6  2  1  0  0  0  0
  7  8  1  0  0  0  0
  8  9  1  0  0  0  0
  9 10  1  0  0  0  0
 10 11  1  0  0  0  0
 10 12  1  0  0  0  0
 11 13  1  0  0  0  0
 13 15  1  0  0  0  0
 14 12  1  0  0  0  0
 15 14  1  0  0  0  0
 16 18  2  0  0  0  0
 16 22  1  0  0  0  0
 17 23  1  0  0  0  0
 17 29  1  0  0  0  0
 18 19  1  0  0  0  0
 18 26  1  0  0  0  0
 19 20  2  0  0  0  0
 20  3  1  0  0  0  0
 20 21  1  0  0  0  0
 21  5  1  0  0  0  0
 21 22  2  0  0  0  0
 23 24  2  0  0  0  0
 24 30  1  0  0  0  0
 25 26  2  0  0  0  0
 25 30  1  0  0  0  0
 26 27  1  0  0  0  0
 27 28  2  0  0  0  0
 28 29  1  0  0  0  0
 29 30  2  0  0  0  0
M  END
>  <CHROM.1>
167.93042764,-112.74566419,-142.30590779,81.77508063,-62.41076440,-94.92318579
-155.58090313,-76.91194423,70.69584718,-50.15333128,70.58300034,0.60557804
4.41425952,16.46966501,-3.14067751,-0.88545294,-0.26592253

>  <Name>
1uts_lig

>  <RI>
0

>  <Rbt.Current_Directory>
/home/itssahil/PROJECTS/Mol_Feturizer/New_Systems/rnas/1uts

>  <Rbt.Executable>
rbdock ($Id: //depot/dev/client3/rdock/2013.1/src/exe/rbdock.cxx#4 $)

>  <Rbt.Library>
libRbt.so (2013.1, Build901 2013/11/27)

>  <Rbt.Parameter_File>
/export/apps/rDock/src/rDock_2013.1_src/data/scripts/dock_solv.prm

>  <Rbt.Receptor>
prm/pocket_docking_5.prm

>  <SCORE>
-23.7604

>  <SCORE.INTER>
-28.1502

>  <SCORE.INTER.CONST>
1

>  <SCORE.INTER.POLAR>
-3.02215

>  <SCORE.INTER.ROT>
10

>  <SCORE.INTER.SOLV>
9.7345

>  <SCORE.INTER.VDW>
-22.2045

>  <SCORE.INTER.norm>
-0.93834

>  <SCORE.INTRA>
4.38979

>  <SCORE.INTRA.DIHEDRAL>
6.43056

>  <SCORE.INTRA.DIHEDRAL.0>
18.0451

>  <SCORE.INTRA.POLAR>
0.196815

>  <SCORE.INTRA.POLAR.0>
-0.196815

>  <SCORE.INTRA.REPUL>
0

>  <SCORE.INTRA.REPUL.0>
0

>  <SCORE.INTRA.SOLV>
-0.477789

>  <SCORE.INTRA.SOLV.lig_0>
-14.7906

>  <SCORE.INTRA.VDW>
0.744232

>  <SCORE.INTRA.VDW.0>
-0.411701

>  <SCORE.INTRA.norm>
0.146326

>  <SCORE.RESTR>
0

>  <SCORE.RESTR.CAVITY>
0

>  <SCORE.RESTR.norm>
0

>  <SCORE.SYSTEM>
0

>  <SCORE.SYSTEM.CONST>
0

>  <SCORE.SYSTEM.DIHEDRAL>
0

>  <SCORE.SYSTEM.SOLV>
0

>  <SCORE.SYSTEM.norm>
0

>  <SCORE.heavy>
30

>  <SCORE.norm>
-0.792014

>  <RMSD>
9.396

$$$$
1uts_lig
 OpenBabel11021811413D
libRbt.so/2013.1/901 2013/11/27
 30 33  0  0  0  0  0  0  0  0999 V2000
   -2.5382   -3.0629   14.6346 N   0  0  0  0  0  0  0  0  0  0  0  0
   -3.4202   -1.0397   15.7144 C   0  0  0  0  0  0  0  0  0  0  0  0
   -4.3775    3.5948   13.9420 C   0  0  0  0  0  0  0  0  0  0  0  0
   -4.6957   -0.2443   16.0070 C   0  0  0  0  0  0  0  0  0  0  0  0
   -4.6894    0.9661   15.2359 O   0  0  0  0  0  0  0  0  0  0  0  0
   -3.7745   -2.3038   14.9291 C   0  0  0  0  0  0  0  0  0  0  0  0
   -3.3169    3.5184   12.9119 N   0  0  0  0  0  0  0  0  0  0  0  0
   -2.3964    4.6775   13.0537 C   0  0  0  0  0  0  0  0  0  0  0  0
   -1.3611    4.6578   11.9253 C   0  0  0  0  0  0  0  0  0  0  0  0
   -1.8466    5.4835   10.7969 N   0  0  0  0  0  0  0  0  0  0  0  0
   -0.8439    5.4479    9.6936 C   0  0  0  0  0  0  0  0  0  0  0  0
   -2.0570    6.8831   11.2634 C   0  0  0  0  0  0  0  0  0  0  0  0
   -1.3430    6.3077    8.5211 C   0  0  0  0  0  0  0  0  0  0  0  0
   -2.5533    7.7459   10.0892 C   0  0  0  0  0  0  0  0  0  0  0  0
   -1.5525    7.7079    8.9868 N   0  0  0  0  0  0  0  0  0  0  0  0
   -2.7021    2.7464   17.9028 C   0  0  0  0  0  0  0  0  0  0  0  0
    0.2332    7.9587   20.2306 N   0  0  0  0  0  0  0  0  0  0  0  0
   -2.5145    4.0170   17.3081 C   0  0  0  0  0  0  0  0  0  0  0  0
   -3.0597    4.2851   16.0242 C   0  0  0  0  0  0  0  0  0  0  0  0
   -3.7960    3.2823   15.3356 C   0  0  0  0  0  0  0  0  0  0  0  0
   -3.9700    1.9965   15.9301 C   0  0  0  0  0  0  0  0  0  0  0  0
   -3.4247    1.7348   17.2169 C   0  0  0  0  0  0  0  0  0  0  0  0
   -0.8036    8.2529   21.1451 C   0  0  0  0  0  0  0  0  0  0  0  0
   -1.9531    7.4771   20.8724 C   0  0  0  0  0  0  0  0  0  0  0  0
   -2.3796    5.6964   19.0804 C   0  0  0  0  0  0  0  0  0  0  0  0
   -1.7862    5.0003   17.9924 C   0  0  0  0  0  0  0  0  0  0  0  0
   -0.4509    5.2979   17.6042 C   0  0  0  0  0  0  0  0  0  0  0  0
    0.2895    6.2883   18.3046 C   0  0  0  0  0  0  0  0  0  0  0  0
   -0.3056    6.9771   19.4076 C   0  0  0  0  0  0  0  0  0  0  0  0
   -1.6267    6.6844   19.7927 C   0  0  0  0  0  0  0  0  0  0  0  0
  1  6  1  0  0  0  0
  2  4  1  0  0  0  0
  3  7  1  0  0  0  0
  4  5  1  0  0  0  0
  6  2  1  0  0  0  0
  7  8  1  0  0  0  0
  8  9  1  0  0  0  0
  9 10  1  0  0  0  0
 10 11  1  0  0  0  0
 10 12  1  0  0  0  0
 11 13  1  0  0  0  0
 13 15  1  0  0  0  0
 14 12  1  0  0  0  0
 15 14  1  0  0  0  0
 16 18  2  0  0  0  0
 16 22  1  0  0  0  0
 17 23  1  0  0  0  0
 17 29  1  0  0  0  0
 18 19  1  0  0  0  0
 18 26  1  0  0  0  0
 19 20  2  0  0  0  0
 20  3  1  0  0  0  0
 20 21  1  0  0  0  0
 21  5  1  0  0  0  0
 21 22  2  0  0  0  0
 23 24  2  0  0  0  0
 24 30  1  0  0  0  0
 25 26  2  0  0  0  0
 25 30  1  0  0  0  0
 26 27  1  0  0  0  0
 27 28  2  0  0  0  0
 28 29  1  0  0  0  0
 29 30  2  0  0  0  0
M  END
>  <CHROM.1>
171.90623711,-110.48577451,-71.57388989,-85.62067004,179.37160978,-175.77764196
93.00984277,-179.29154016,-75.85868082,78.11961768,178.08740893,-2.31277103
4.19208895,15.21488727,1.87258982,-1.24948801,-1.41390516

>  <Name>
1uts_lig

>  <RI>
0

>  <Rbt.Current_Directory>
/home/itssahil/PROJECTS/Mol_Feturizer/New_Systems/rnas/1uts

>  <Rbt.Executable>
rbdock ($Id: //depot/dev/client3/rdock/2013.1/src/exe/rbdock.cxx#4 $)

>  <Rbt.Library>
libRbt.so (2013.1, Build901 2013/11/27)

>  <Rbt.Parameter_File>
/export/apps/rDock/src/rDock_2013.1_src/data/scripts/dock_solv.prm

>  <Rbt.Receptor>
prm/pocket_docking_7.prm

>  <SCORE>
-29.1268

>  <SCORE.INTER>
-33.8792

>  <SCORE.INTER.CONST>
1

>  <SCORE.INTER.POLAR>
-2.7729

>  <SCORE.INTER.ROT>
10

>  <SCORE.INTER.SOLV>
9.71259

>  <SCORE.INTER.VDW>
-26.8473

>  <SCORE.INTER.norm>
-1.12931

>  <SCORE.INTRA>
4.75241

>  <SCORE.INTRA.DIHEDRAL>
-1.09374

>  <SCORE.INTRA.DIHEDRAL.0>
18.0451

>  <SCORE.INTRA.POLAR>
0.196815

>  <SCORE.INTRA.POLAR.0>
-0.196815

>  <SCORE.INTRA.REPUL>
0

>  <SCORE.INTRA.REPUL.0>
0

>  <SCORE.INTRA.SOLV>
-0.478221

>  <SCORE.INTRA.SOLV.lig_0>
-14.7906

>  <SCORE.INTRA.VDW>
4.86922

>  <SCORE.INTRA.VDW.0>
-0.411701

>  <SCORE.INTRA.norm>
0.158414

>  <SCORE.RESTR>
0

>  <SCORE.RESTR.CAVITY>
0

>  <SCORE.RESTR.norm>
0

>  <SCORE.SYSTEM>
0

>  <SCORE.SYSTEM.CONST>
0

>  <SCORE.SYSTEM.DIHEDRAL>
0

>  <SCORE.SYSTEM.SOLV>
0

>  <SCORE.SYSTEM.norm>
0

>  <SCORE.heavy>
30

>  <SCORE.norm>
-0.970894

>  <RMSD>
9.405

$$$$
1uts_lig
 OpenBabel11021811413D
libRbt.so/2013.1/901 2013/11/27
 30 33  0  0  0  0  0  0  0  0999 V2000
    0.7472   -3.1494   15.3603 N   0  0  0  0  0  0  0  0  0  0  0  0
   -0.9911   -1.4939   15.8843 C   0  0  0  0  0  0  0  0  0  0  0  0
   -1.0336    3.8036   15.1043 C   0  0  0  0  0  0  0  0  0  0  0  0
   -1.2356   -0.0748   16.4055 C   0  0  0  0  0  0  0  0  0  0  0  0
   -1.0016    0.8676   15.3487 O   0  0  0  0  0  0  0  0  0  0  0  0
    0.5054   -1.8069   15.9354 C   0  0  0  0  0  0  0  0  0  0  0  0
   -1.7454    3.1359   13.9910 N   0  0  0  0  0  0  0  0  0  0  0  0
   -3.1324    3.6631   13.8955 C   0  0  0  0  0  0  0  0  0  0  0  0
   -4.0833    2.7664   14.6937 C   0  0  0  0  0  0  0  0  0  0  0  0
   -5.3511    3.4894   14.9407 N   0  0  0  0  0  0  0  0  0  0  0  0
   -5.5621    3.6251   16.4108 C   0  0  0  0  0  0  0  0  0  0  0  0
   -6.4781    2.7368   14.3208 C   0  0  0  0  0  0  0  0  0  0  0  0
   -6.8801    4.3723   16.6713 C   0  0  0  0  0  0  0  0  0  0  0  0
   -7.7989    3.4821   14.5843 C   0  0  0  0  0  0  0  0  0  0  0  0
   -8.0077    3.6193   16.0526 N   0  0  0  0  0  0  0  0  0  0  0  0
    2.6084    1.6041   16.1591 C   0  0  0  0  0  0  0  0  0  0  0  0
    7.5556    5.5678   17.0007 N   0  0  0  0  0  0  0  0  0  0  0  0
    2.6394    3.0136   16.0342 C   0  0  0  0  0  0  0  0  0  0  0  0
    1.4557    3.7201   15.6917 C   0  0  0  0  0  0  0  0  0  0  0  0
    0.2390    3.0164   15.4769 C   0  0  0  0  0  0  0  0  0  0  0  0
    0.2137    1.5936   15.5874 C   0  0  0  0  0  0  0  0  0  0  0  0
    1.4009    0.8920   15.9336 C   0  0  0  0  0  0  0  0  0  0  0  0
    8.0650    4.6241   17.9214 C   0  0  0  0  0  0  0  0  0  0  0  0
    7.1338    3.5852   18.1473 C   0  0  0  0  0  0  0  0  0  0  0  0
    4.8066    3.1831   17.1541 C   0  0  0  0  0  0  0  0  0  0  0  0
    3.8431    3.7005   16.2461 C   0  0  0  0  0  0  0  0  0  0  0  0
    4.1053    4.9115   15.5483 C   0  0  0  0  0  0  0  0  0  0  0  0
    5.3297    5.6019   15.7570 C   0  0  0  0  0  0  0  0  0  0  0  0
    6.3029    5.0716   16.6607 C   0  0  0  0  0  0  0  0  0  0  0  0
    6.0450    3.8739   17.3524 C   0  0  0  0  0  0  0  0  0  0  0  0
  1  6  1  0  0  0  0
  2  4  1  0  0  0  0
  3  7  1  0  0  0  0
  4  5  1  0  0  0  0
  6  2  1  0  0  0  0
  7  8  1  0  0  0  0
  8  9  1  0  0  0  0
  9 10  1  0  0  0  0
 10 11  1  0  0  0  0
 10 12  1  0  0  0  0
 11 13  1  0  0  0  0
 13 15  1  0  0  0  0
 14 12  1  0  0  0  0
 15 14  1  0  0  0  0
 16 18  2  0  0  0  0
 16 22  1  0  0  0  0
 17 23  1  0  0  0  0
 17 29  1  0  0  0  0
 18 19  1  0  0  0  0
 18 26  1  0  0  0  0
 19 20  2  0  0  0  0
 20  3  1  0  0  0  0
 20 21  1  0  0  0  0
 21  5  1  0  0  0  0
 21 22  2  0  0  0  0
 23 24  2  0  0  0  0
 24 30  1  0  0  0  0
 25 26  2  0  0  0  0
 25 30  1  0  0  0  0
 26 27  1  0  0  0  0
 27 28  2  0  0  0  0
 28 29  1  0  0  0  0
 29 30  2  0  0  0  0
M  END
>  <CHROM.1>
-57.24382915,82.79833457,164.13820774,-108.09791728,-176.83464760,-93.66841591
163.04518412,-119.51459659,-30.23307858,134.97320798,-131.75027087,0.10961170
2.69492427,15.83515274,-0.09959812,0.13525505,-3.10466050

>  <Name>
1uts_lig

>  <RI>
0

>  <Rbt.Current_Directory>
/home/itssahil/PROJECTS/Mol_Feturizer/New_Systems/rnas/1uts

>  <Rbt.Executable>
rbdock ($Id: //depot/dev/client3/rdock/2013.1/src/exe/rbdock.cxx#4 $)

>  <Rbt.Library>
libRbt.so (2013.1, Build901 2013/11/27)

>  <Rbt.Parameter_File>
/export/apps/rDock/src/rDock_2013.1_src/data/scripts/dock_solv.prm

>  <Rbt.Receptor>
prm/pocket_docking_5.prm

>  <SCORE>
-25.9784

>  <SCORE.INTER>
-28.0702

>  <SCORE.INTER.CONST>
1

>  <SCORE.INTER.POLAR>
-0.790789

>  <SCORE.INTER.ROT>
10

>  <SCORE.INTER.SOLV>
9.23178

>  <SCORE.INTER.VDW>
-29.4214

>  <SCORE.INTER.norm>
-0.935673

>  <SCORE.INTRA>
2.06056

>  <SCORE.INTRA.DIHEDRAL>
2.23042

>  <SCORE.INTRA.DIHEDRAL.0>
18.0451

>  <SCORE.INTRA.POLAR>
-0.569416

>  <SCORE.INTRA.POLAR.0>
-0.196815

>  <SCORE.INTRA.REPUL>
0

>  <SCORE.INTRA.REPUL.0>
0

>  <SCORE.INTRA.SOLV>
-0.188019

>  <SCORE.INTRA.SOLV.lig_0>
-14.7906

>  <SCORE.INTRA.VDW>
2.97537

>  <SCORE.INTRA.VDW.0>
-0.411701

>  <SCORE.INTRA.norm>
0.0686853

>  <SCORE.RESTR>
0.0312321

>  <SCORE.RESTR.CAVITY>
0.0312321

>  <SCORE.RESTR.norm>
0.00104107

>  <SCORE.SYSTEM>
0

>  <SCORE.SYSTEM.CONST>
0

>  <SCORE.SYSTEM.DIHEDRAL>
0

>  <SCORE.SYSTEM.SOLV>
0

>  <SCORE.SYSTEM.norm>
0

>  <SCORE.heavy>
30

>  <SCORE.norm>
-0.865946

>  <RMSD>
9.512

$$$$
1uts_lig
 OpenBabel11021811413D
libRbt.so/2013.1/901 2013/11/27
 30 33  0  0  0  0  0  0  0  0999 V2000
   -4.0435    5.7768   19.0933 N   0  0  0  0  0  0  0  0  0  0  0  0
   -3.0357    4.3300   17.3820 C   0  0  0  0  0  0  0  0  0  0  0  0
   -1.7237    1.9326   14.7988 C   0  0  0  0  0  0  0  0  0  0  0  0
   -1.6753    5.0222   17.2575 C   0  0  0  0  0  0  0  0  0  0  0  0
   -0.8750    4.3285   16.2889 O   0  0  0  0  0  0  0  0  0  0  0  0
   -3.5229    4.4163   18.8296 C   0  0  0  0  0  0  0  0  0  0  0  0
   -1.0890    2.8606   13.8354 N   0  0  0  0  0  0  0  0  0  0  0  0
   -2.1372    3.6455   13.1312 C   0  0  0  0  0  0  0  0  0  0  0  0
   -1.4811    4.7182   12.2569 C   0  0  0  0  0  0  0  0  0  0  0  0
   -2.5311    5.5429   11.6179 N   0  0  0  0  0  0  0  0  0  0  0  0
   -3.2521    4.7223   10.6028 C   0  0  0  0  0  0  0  0  0  0  0  0
   -1.9028    6.7315   10.9749 C   0  0  0  0  0  0  0  0  0  0  0  0
   -4.3411    5.5768    9.9342 C   0  0  0  0  0  0  0  0  0  0  0  0
   -2.9920    7.5861   10.3018 C   0  0  0  0  0  0  0  0  0  0  0  0
   -3.7131    6.7651    9.2898 N   0  0  0  0  0  0  0  0  0  0  0  0
    0.6365    1.6571   18.4823 C   0  0  0  0  0  0  0  0  0  0  0  0
    1.8172   -4.5757   19.6898 N   0  0  0  0  0  0  0  0  0  0  0  0
    0.2334    0.4810   17.8059 C   0  0  0  0  0  0  0  0  0  0  0  0
   -0.5317    0.5774   16.6130 C   0  0  0  0  0  0  0  0  0  0  0  0
   -0.8913    1.8516   16.0944 C   0  0  0  0  0  0  0  0  0  0  0  0
   -0.4977    3.0359   16.7870 C   0  0  0  0  0  0  0  0  0  0  0  0
    0.2707    2.9333   17.9789 C   0  0  0  0  0  0  0  0  0  0  0  0
    2.4776   -5.0011   18.5148 C   0  0  0  0  0  0  0  0  0  0  0  0
    2.3954   -4.0163   17.5043 C   0  0  0  0  0  0  0  0  0  0  0  0
    1.3102   -1.6955   17.5183 C   0  0  0  0  0  0  0  0  0  0  0  0
    0.5905   -0.7718   18.3240 C   0  0  0  0  0  0  0  0  0  0  0  0
    0.2397   -1.1179   19.6580 C   0  0  0  0  0  0  0  0  0  0  0  0
    0.6103   -2.3845   20.1851 C   0  0  0  0  0  0  0  0  0  0  0  0
    1.3465   -3.3062   19.3766 C   0  0  0  0  0  0  0  0  0  0  0  0
    1.6939   -2.9657   18.0564 C   0  0  0  0  0  0  0  0  0  0  0  0
  1  6  1  0  0  0  0
  2  4  1  0  0  0  0
  3  7  1  0  0  0  0
  4  5  1  0  0  0  0
  6  2  1  0  0  0  0
  7  8  1  0  0  0  0
  8  9  1  0  0  0  0
  9 10  1  0  0  0  0
 10 11  1  0  0  0  0
 10 12  1  0  0  0  0
 11 13  1  0  0  0  0
 13 15  1  0  0  0  0
 14 12  1  0  0  0  0
 15 14  1  0  0  0  0
 16 18  2  0  0  0  0
 16 22  1  0  0  0  0
 17 23  1  0  0  0  0
 17 29  1  0  0  0  0
 18 19  1  0  0  0  0
 18 26  1  0  0  0  0
 19 20  2  0  0  0  0
 20  3  1  0  0  0  0
 20 21  1  0  0  0  0
 21  5  1  0  0  0  0
 21 22  2  0  0  0  0
 23 24  2  0  0  0  0
 24 30  1  0  0  0  0
 25 26  2  0  0  0  0
 25 30  1  0  0  0  0
 26 27  1  0  0  0  0
 27 28  2  0  0  0  0
 28 29  1  0  0  0  0
 29 30  2  0  0  0  0
M  END
>  <CHROM.1>
-167.26841370,145.47821478,-141.30521040,-68.99516944,77.01483122,173.39034026
-176.89424581,-69.35653180,-123.88200776,-129.51392861,119.54601784,-0.99603841
2.14406050,15.82200041,2.43831681,1.08076967,-1.50834131

>  <Name>
1uts_lig

>  <RI>
0

>  <Rbt.Current_Directory>
/home/itssahil/PROJECTS/Mol_Feturizer/New_Systems/rnas/1uts

>  <Rbt.Executable>
rbdock ($Id: //depot/dev/client3/rdock/2013.1/src/exe/rbdock.cxx#4 $)

>  <Rbt.Library>
libRbt.so (2013.1, Build901 2013/11/27)

>  <Rbt.Parameter_File>
/export/apps/rDock/src/rDock_2013.1_src/data/scripts/dock_solv.prm

>  <Rbt.Receptor>
prm/pocket_docking_7.prm

>  <SCORE>
-26.6945

>  <SCORE.INTER>
-24.8633

>  <SCORE.INTER.CONST>
1

>  <SCORE.INTER.POLAR>
-2.30739

>  <SCORE.INTER.ROT>
10

>  <SCORE.INTER.SOLV>
7.66581

>  <SCORE.INTER.VDW>
-21.7062

>  <SCORE.INTER.norm>
-0.828777

>  <SCORE.INTRA>
-1.8312

>  <SCORE.INTRA.DIHEDRAL>
-2.22103

>  <SCORE.INTRA.DIHEDRAL.0>
18.0451

>  <SCORE.INTRA.POLAR>
-0.289264

>  <SCORE.INTRA.POLAR.0>
-0.196815

>  <SCORE.INTRA.REPUL>
0

>  <SCORE.INTRA.REPUL.0>
0

>  <SCORE.INTRA.SOLV>
-0.255147

>  <SCORE.INTRA.SOLV.lig_0>
-14.7906

>  <SCORE.INTRA.VDW>
0.390391

>  <SCORE.INTRA.VDW.0>
-0.411701

>  <SCORE.INTRA.norm>
-0.0610398

>  <SCORE.RESTR>
0

>  <SCORE.RESTR.CAVITY>
0

>  <SCORE.RESTR.norm>
0

>  <SCORE.SYSTEM>
0

>  <SCORE.SYSTEM.CONST>
0

>  <SCORE.SYSTEM.DIHEDRAL>
0

>  <SCORE.SYSTEM.SOLV>
0

>  <SCORE.SYSTEM.norm>
0

>  <SCORE.heavy>
30

>  <SCORE.norm>
-0.889817

>  <RMSD>
9.515

$$$$
1uts_lig
 OpenBabel11021811413D
libRbt.so/2013.1/901 2013/11/27
 30 33  0  0  0  0  0  0  0  0999 V2000
    2.5080    6.1226   18.9326 N   0  0  0  0  0  0  0  0  0  0  0  0
    0.7620    4.5729   18.1662 C   0  0  0  0  0  0  0  0  0  0  0  0
   -1.3050    1.4960   17.1190 C   0  0  0  0  0  0  0  0  0  0  0  0
    1.3114    4.4743   16.7401 C   0  0  0  0  0  0  0  0  0  0  0  0
    0.5805    3.4735   16.0164 O   0  0  0  0  0  0  0  0  0  0  0  0
    1.0500    5.9655   18.7302 C   0  0  0  0  0  0  0  0  0  0  0  0
   -1.8905    2.1391   15.9208 N   0  0  0  0  0  0  0  0  0  0  0  0
   -3.3277    2.4343   16.1626 C   0  0  0  0  0  0  0  0  0  0  0  0
   -3.9333    3.1065   14.9270 C   0  0  0  0  0  0  0  0  0  0  0  0
   -5.3899    2.8462   14.8887 N   0  0  0  0  0  0  0  0  0  0  0  0
   -5.9506    3.3718   13.6107 C   0  0  0  0  0  0  0  0  0  0  0  0
   -6.0411    3.5090   16.0539 C   0  0  0  0  0  0  0  0  0  0  0  0
   -7.4642    3.1067   13.5691 C   0  0  0  0  0  0  0  0  0  0  0  0
   -7.5574    3.2472   16.0112 C   0  0  0  0  0  0  0  0  0  0  0  0
   -8.1162    3.7703   14.7335 N   0  0  0  0  0  0  0  0  0  0  0  0
    2.9273    0.5553   16.4727 C   0  0  0  0  0  0  0  0  0  0  0  0
    4.2700   -5.3768   18.4838 N   0  0  0  0  0  0  0  0  0  0  0  0
    2.0579   -0.4174   17.0215 C   0  0  0  0  0  0  0  0  0  0  0  0
    0.6876   -0.1059   17.2287 C   0  0  0  0  0  0  0  0  0  0  0  0
    0.1857    1.1790   16.8838 C   0  0  0  0  0  0  0  0  0  0  0  0
    1.0676    2.1638   16.3457 C   0  0  0  0  0  0  0  0  0  0  0  0
    2.4376    1.8453   16.1376 C   0  0  0  0  0  0  0  0  0  0  0  0
    5.5533   -4.8993   18.8346 C   0  0  0  0  0  0  0  0  0  0  0  0
    5.6456   -3.5035   18.6324 C   0  0  0  0  0  0  0  0  0  0  0  0
    3.9050   -1.8176   17.8005 C   0  0  0  0  0  0  0  0  0  0  0  0
    2.5603   -1.6816   17.3604 C   0  0  0  0  0  0  0  0  0  0  0  0
    1.7242   -2.8285   17.2713 C   0  0  0  0  0  0  0  0  0  0  0  0
    2.2319   -4.1081   17.6240 C   0  0  0  0  0  0  0  0  0  0  0  0
    3.5810   -4.2396   18.0797 C   0  0  0  0  0  0  0  0  0  0  0  0
    4.4099   -3.1062   18.1680 C   0  0  0  0  0  0  0  0  0  0  0  0
  1  6  1  0  0  0  0
  2  4  1  0  0  0  0
  3  7  1  0  0  0  0
  4  5  1  0  0  0  0
  6  2  1  0  0  0  0
  7  8  1  0  0  0  0
  8  9  1  0  0  0  0
  9 10  1  0  0  0  0
 10 11  1  0  0  0  0
 10 12  1  0  0  0  0
 11 13  1  0  0  0  0
 13 15  1  0  0  0  0
 14 12  1  0  0  0  0
 15 14  1  0  0  0  0
 16 18  2  0  0  0  0
 16 22  1  0  0  0  0
 17 23  1  0  0  0  0
 17 29  1  0  0  0  0
 18 19  1  0  0  0  0
 18 26  1  0  0  0  0
 19 20  2  0  0  0  0
 20  3  1  0  0  0  0
 20 21  1  0  0  0  0
 21  5  1  0  0  0  0
 21 22  2  0  0  0  0
 23 24  2  0  0  0  0
 24 30  1  0  0  0  0
 25 26  2  0  0  0  0
 25 30  1  0  0  0  0
 26 27  1  0  0  0  0
 27 28  2  0  0  0  0
 28 29  1  0  0  0  0
 29 30  2  0  0  0  0
M  END
>  <CHROM.1>
-64.22652588,-154.98199033,179.83740006,-80.33511038,-68.18370840,179.69327038
154.27380868,-173.81235486,31.52439299,-133.04724013,122.10708699,-0.21066451
1.07855765,16.76368358,-2.58184011,0.32975854,-3.07846537

>  <Name>
1uts_lig

>  <RI>
0

>  <Rbt.Current_Directory>
/home/itssahil/PROJECTS/Mol_Feturizer/New_Systems/rnas/1uts

>  <Rbt.Executable>
rbdock ($Id: //depot/dev/client3/rdock/2013.1/src/exe/rbdock.cxx#4 $)

>  <Rbt.Library>
libRbt.so (2013.1, Build901 2013/11/27)

>  <Rbt.Parameter_File>
/export/apps/rDock/src/rDock_2013.1_src/data/scripts/dock_solv.prm

>  <Rbt.Receptor>
prm/pocket_docking_5.prm

>  <SCORE>
-23.4795

>  <SCORE.INTER>
-20.4802

>  <SCORE.INTER.CONST>
1

>  <SCORE.INTER.POLAR>
-1.4789

>  <SCORE.INTER.ROT>
10

>  <SCORE.INTER.SOLV>
7.4064

>  <SCORE.INTER.VDW>
-21.4593

>  <SCORE.INTER.norm>
-0.682674

>  <SCORE.INTRA>
-2.99925

>  <SCORE.INTRA.DIHEDRAL>
-6.1416

>  <SCORE.INTRA.DIHEDRAL.0>
18.0451

>  <SCORE.INTRA.POLAR>
-0.387789

>  <SCORE.INTRA.POLAR.0>
-0.196815

>  <SCORE.INTRA.REPUL>
0

>  <SCORE.INTRA.REPUL.0>
0

>  <SCORE.INTRA.SOLV>
-0.273115

>  <SCORE.INTRA.SOLV.lig_0>
-14.7906

>  <SCORE.INTRA.VDW>
1.52659

>  <SCORE.INTRA.VDW.0>
-0.411701

>  <SCORE.INTRA.norm>
-0.0999752

>  <SCORE.RESTR>
0

>  <SCORE.RESTR.CAVITY>
0

>  <SCORE.RESTR.norm>
0

>  <SCORE.SYSTEM>
0

>  <SCORE.SYSTEM.CONST>
0

>  <SCORE.SYSTEM.DIHEDRAL>
0

>  <SCORE.SYSTEM.SOLV>
0

>  <SCORE.SYSTEM.norm>
0

>  <SCORE.heavy>
30

>  <SCORE.norm>
-0.782649

>  <RMSD>
9.542

$$$$
1uts_lig
 OpenBabel11021811413D
libRbt.so/2013.1/901 2013/11/27
 30 33  0  0  0  0  0  0  0  0999 V2000
   -2.1255    0.9158   18.9563 N   0  0  0  0  0  0  0  0  0  0  0  0
   -3.3017    2.6623   17.6900 C   0  0  0  0  0  0  0  0  0  0  0  0
   -1.3362    3.6504   14.6637 C   0  0  0  0  0  0  0  0  0  0  0  0
   -3.7595    4.1230   17.7333 C   0  0  0  0  0  0  0  0  0  0  0  0
   -3.1220    4.8533   16.6749 O   0  0  0  0  0  0  0  0  0  0  0  0
   -2.7218    2.2675   19.0495 C   0  0  0  0  0  0  0  0  0  0  0  0
   -1.6774    4.6633   13.6392 N   0  0  0  0  0  0  0  0  0  0  0  0
   -2.0975    3.9849   12.3845 C   0  0  0  0  0  0  0  0  0  0  0  0
   -2.7888    4.9902   11.4587 C   0  0  0  0  0  0  0  0  0  0  0  0
   -2.9764    4.3812   10.1227 N   0  0  0  0  0  0  0  0  0  0  0  0
   -1.6890    4.4351    9.3719 C   0  0  0  0  0  0  0  0  0  0  0  0
   -4.0392    5.1225    9.3866 C   0  0  0  0  0  0  0  0  0  0  0  0
   -1.8810    3.8069    7.9820 C   0  0  0  0  0  0  0  0  0  0  0  0
   -4.2297    4.4967    7.9932 C   0  0  0  0  0  0  0  0  0  0  0  0
   -2.9430    4.5487    7.2449 N   0  0  0  0  0  0  0  0  0  0  0  0
    0.2128    5.5807   18.2816 C   0  0  0  0  0  0  0  0  0  0  0  0
    6.6777    5.0817   18.0916 N   0  0  0  0  0  0  0  0  0  0  0  0
    1.1038    4.9987   17.3485 C   0  0  0  0  0  0  0  0  0  0  0  0
    0.5951    4.3744   16.1784 C   0  0  0  0  0  0  0  0  0  0  0  0
   -0.8061    4.3348   15.9398 C   0  0  0  0  0  0  0  0  0  0  0  0
   -1.7037    4.9079   16.8900 C   0  0  0  0  0  0  0  0  0  0  0  0
   -1.1886    5.5343   18.0580 C   0  0  0  0  0  0  0  0  0  0  0  0
    7.0195    4.3477   16.9331 C   0  0  0  0  0  0  0  0  0  0  0  0
    5.8620    3.9598   16.2209 C   0  0  0  0  0  0  0  0  0  0  0  0
    3.3834    4.4044   16.6928 C   0  0  0  0  0  0  0  0  0  0  0  0
    2.4839    5.0403   17.5913 C   0  0  0  0  0  0  0  0  0  0  0  0
    2.9868    5.7241   18.7322 C   0  0  0  0  0  0  0  0  0  0  0  0
    4.3867    5.7734   18.9722 C   0  0  0  0  0  0  0  0  0  0  0  0
    5.2898    5.1446   18.0590 C   0  0  0  0  0  0  0  0  0  0  0  0
    4.7941    4.4671   16.9300 C   0  0  0  0  0  0  0  0  0  0  0  0
  1  6  1  0  0  0  0
  2  4  1  0  0  0  0
  3  7  1  0  0  0  0
  4  5  1  0  0  0  0
  6  2  1  0  0  0  0
  7  8  1  0  0  0  0
  8  9  1  0  0  0  0
  9 10  1  0  0  0  0
 10 11  1  0  0  0  0
 10 12  1  0  0  0  0
 11 13  1  0  0  0  0
 13 15  1  0  0  0  0
 14 12  1  0  0  0  0
 15 14  1  0  0  0  0
 16 18  2  0  0  0  0
 16 22  1  0  0  0  0
 17 23  1  0  0  0  0
 17 29  1  0  0  0  0
 18 19  1  0  0  0  0
 18 26  1  0  0  0  0
 19 20  2  0  0  0  0
 20  3  1  0  0  0  0
 20 21  1  0  0  0  0
 21  5  1  0  0  0  0
 21 22  2  0  0  0  0
 23 24  2  0  0  0  0
 24 30  1  0  0  0  0
 25 26  2  0  0  0  0
 25 30  1  0  0  0  0
 26 27  1  0  0  0  0
 27 28  2  0  0  0  0
 28 29  1  0  0  0  0
 29 30  2  0  0  0  0
M  END
>  <CHROM.1>
179.55981518,124.79972766,176.12853516,-65.26154360,-172.89422848,165.40020001
169.50305941,-78.89218069,177.05120962,-100.83317827,118.83640820,-0.13940126
4.37719437,15.05598570,0.87806799,0.16030130,1.67166986

>  <Name>
1uts_lig

>  <RI>
0

>  <Rbt.Current_Directory>
/home/itssahil/PROJECTS/Mol_Feturizer/New_Systems/rnas/1uts

>  <Rbt.Executable>
rbdock ($Id: //depot/dev/client3/rdock/2013.1/src/exe/rbdock.cxx#4 $)

>  <Rbt.Library>
libRbt.so (2013.1, Build901 2013/11/27)

>  <Rbt.Parameter_File>
/export/apps/rDock/src/rDock_2013.1_src/data/scripts/dock_solv.prm

>  <Rbt.Receptor>
prm/pocket_docking_5.prm

>  <SCORE>
-31.6142

>  <SCORE.INTER>
-31.0424

>  <SCORE.INTER.CONST>
1

>  <SCORE.INTER.POLAR>
-2.85185

>  <SCORE.INTER.ROT>
10

>  <SCORE.INTER.SOLV>
7.01266

>  <SCORE.INTER.VDW>
-23.793

>  <SCORE.INTER.norm>
-1.03475

>  <SCORE.INTRA>
-1.15861

>  <SCORE.INTRA.DIHEDRAL>
-6.0977

>  <SCORE.INTRA.DIHEDRAL.0>
18.0451

>  <SCORE.INTRA.POLAR>
0.196815

>  <SCORE.INTRA.POLAR.0>
-0.196815

>  <SCORE.INTRA.REPUL>
0

>  <SCORE.INTRA.REPUL.0>
0

>  <SCORE.INTRA.SOLV>
-0.561177

>  <SCORE.INTRA.SOLV.lig_0>
-14.7906

>  <SCORE.INTRA.VDW>
1.50166

>  <SCORE.INTRA.VDW.0>
-0.411701

>  <SCORE.INTRA.norm>
-0.0386203

>  <SCORE.RESTR>
0.586815

>  <SCORE.RESTR.CAVITY>
0.586815

>  <SCORE.RESTR.norm>
0.0195605

>  <SCORE.SYSTEM>
0

>  <SCORE.SYSTEM.CONST>
0

>  <SCORE.SYSTEM.DIHEDRAL>
0

>  <SCORE.SYSTEM.SOLV>
0

>  <SCORE.SYSTEM.norm>
0

>  <SCORE.heavy>
30

>  <SCORE.norm>
-1.05381

>  <RMSD>
9.549

$$$$
1uts_lig
 OpenBabel11021811413D
libRbt.so/2013.1/901 2013/11/27
 30 33  0  0  0  0  0  0  0  0999 V2000
   -6.4788    3.9119   14.5032 N   0  0  0  0  0  0  0  0  0  0  0  0
   -5.6742    4.3469   16.7836 C   0  0  0  0  0  0  0  0  0  0  0  0
   -1.5469    4.8314   13.6550 C   0  0  0  0  0  0  0  0  0  0  0  0
   -4.2076    3.9704   17.0130 C   0  0  0  0  0  0  0  0  0  0  0  0
   -3.4319    4.3587   15.8696 O   0  0  0  0  0  0  0  0  0  0  0  0
   -6.3256    3.3227   15.8525 C   0  0  0  0  0  0  0  0  0  0  0  0
   -2.8849    4.3805   13.2094 N   0  0  0  0  0  0  0  0  0  0  0  0
   -3.0205    4.5874   11.7432 C   0  0  0  0  0  0  0  0  0  0  0  0
   -1.9233    3.8129   11.0072 C   0  0  0  0  0  0  0  0  0  0  0  0
   -1.8041    4.3232    9.6229 N   0  0  0  0  0  0  0  0  0  0  0  0
   -0.7762    3.5277    8.8918 C   0  0  0  0  0  0  0  0  0  0  0  0
   -1.4196    5.7626    9.6583 C   0  0  0  0  0  0  0  0  0  0  0  0
   -0.6469    4.0574    7.4544 C   0  0  0  0  0  0  0  0  0  0  0  0
   -1.2861    6.2932    8.2194 C   0  0  0  0  0  0  0  0  0  0  0  0
   -0.2611    5.4967    7.4891 N   0  0  0  0  0  0  0  0  0  0  0  0
   -0.3448    2.7451   17.3179 C   0  0  0  0  0  0  0  0  0  0  0  0
    5.7420    0.7562   16.8145 N   0  0  0  0  0  0  0  0  0  0  0  0
    0.5866    2.9362   16.2695 C   0  0  0  0  0  0  0  0  0  0  0  0
    0.1904    3.6127   15.0851 C   0  0  0  0  0  0  0  0  0  0  0  0
   -1.1381    4.1013   14.9503 C   0  0  0  0  0  0  0  0  0  0  0  0
   -2.0803    3.8932   16.0020 C   0  0  0  0  0  0  0  0  0  0  0  0
   -1.6771    3.2180   17.1866 C   0  0  0  0  0  0  0  0  0  0  0  0
    5.3437   -0.5818   17.0354 C   0  0  0  0  0  0  0  0  0  0  0  0
    3.9349   -0.6962   17.0350 C   0  0  0  0  0  0  0  0  0  0  0  0
    2.1159    1.0722   16.6777 C   0  0  0  0  0  0  0  0  0  0  0  0
    1.8943    2.4503   16.4090 C   0  0  0  0  0  0  0  0  0  0  0  0
    3.0010    3.3333   16.2752 C   0  0  0  0  0  0  0  0  0  0  0  0
    4.3263    2.8378   16.4077 C   0  0  0  0  0  0  0  0  0  0  0  0
    4.5463    1.4482   16.6641 C   0  0  0  0  0  0  0  0  0  0  0  0
    3.4527    0.5733   16.7974 C   0  0  0  0  0  0  0  0  0  0  0  0
  1  6  1  0  0  0  0
  2  4  1  0  0  0  0
  3  7  1  0  0  0  0
  4  5  1  0  0  0  0
  6  2  1  0  0  0  0
  7  8  1  0  0  0  0
  8  9  1  0  0  0  0
  9 10  1  0  0  0  0
 10 11  1  0  0  0  0
 10 12  1  0  0  0  0
 11 13  1  0  0  0  0
 13 15  1  0  0  0  0
 14 12  1  0  0  0  0
 15 14  1  0  0  0  0
 16 18  2  0  0  0  0
 16 22  1  0  0  0  0
 17 23  1  0  0  0  0
 17 29  1  0  0  0  0
 18 19  1  0  0  0  0
 18 26  1  0  0  0  0
 19 20  2  0  0  0  0
 20  3  1  0  0  0  0
 20 21  1  0  0  0  0
 21  5  1  0  0  0  0
 21 22  2  0  0  0  0
 23 24  2  0  0  0  0
 24 30  1  0  0  0  0
 25 26  2  0  0  0  0
 25 30  1  0  0  0  0
 26 27  1  0  0  0  0
 27 28  2  0  0  0  0
 28 29  1  0  0  0  0
 29 30  2  0  0  0  0
M  END
>  <CHROM.1>
-176.39986861,78.01848607,-155.17047134,-174.07606386,-104.48438046,58.52312998
-163.36038452,-177.57556157,56.55729931,136.99245869,176.73397897,-0.54828195
3.36073226,14.12406969,2.34566713,0.28335081,-1.30769775

>  <Name>
1uts_lig

>  <RI>
0

>  <Rbt.Current_Directory>
/home/itssahil/PROJECTS/Mol_Feturizer/New_Systems/rnas/1uts

>  <Rbt.Executable>
rbdock ($Id: //depot/dev/client3/rdock/2013.1/src/exe/rbdock.cxx#4 $)

>  <Rbt.Library>
libRbt.so (2013.1, Build901 2013/11/27)

>  <Rbt.Parameter_File>
/export/apps/rDock/src/rDock_2013.1_src/data/scripts/dock_solv.prm

>  <Rbt.Receptor>
prm/pocket_docking_6.prm

>  <SCORE>
-33.0912

>  <SCORE.INTER>
-36.6257

>  <SCORE.INTER.CONST>
1

>  <SCORE.INTER.POLAR>
-2.00792

>  <SCORE.INTER.ROT>
10

>  <SCORE.INTER.SOLV>
11.216

>  <SCORE.INTER.VDW>
-31.7294

>  <SCORE.INTER.norm>
-1.22086

>  <SCORE.INTRA>
3.32327

>  <SCORE.INTRA.DIHEDRAL>
-5.68175

>  <SCORE.INTRA.DIHEDRAL.0>
18.0451

>  <SCORE.INTRA.POLAR>
0.108878

>  <SCORE.INTRA.POLAR.0>
-0.196815

>  <SCORE.INTRA.REPUL>
0.0489273

>  <SCORE.INTRA.REPUL.0>
0

>  <SCORE.INTRA.SOLV>
0.190082

>  <SCORE.INTRA.SOLV.lig_0>
-14.7906

>  <SCORE.INTRA.VDW>
5.45428

>  <SCORE.INTRA.VDW.0>
-0.411701

>  <SCORE.INTRA.norm>
0.110776

>  <SCORE.RESTR>
0.211207

>  <SCORE.RESTR.CAVITY>
0.211207

>  <SCORE.RESTR.norm>
0.00704025

>  <SCORE.SYSTEM>
0

>  <SCORE.SYSTEM.CONST>
0

>  <SCORE.SYSTEM.DIHEDRAL>
0

>  <SCORE.SYSTEM.SOLV>
0

>  <SCORE.SYSTEM.norm>
0

>  <SCORE.heavy>
30

>  <SCORE.norm>
-1.10304

>  <RMSD>
9.555

$$$$
1uts_lig
 OpenBabel11021811413D
libRbt.so/2013.1/901 2013/11/27
 30 33  0  0  0  0  0  0  0  0999 V2000
   -6.6626    4.0144   15.0119 N   0  0  0  0  0  0  0  0  0  0  0  0
   -6.3787    3.3164   17.3505 C   0  0  0  0  0  0  0  0  0  0  0  0
   -2.4344    4.1639   14.4103 C   0  0  0  0  0  0  0  0  0  0  0  0
   -5.2254    4.2630   17.6955 C   0  0  0  0  0  0  0  0  0  0  0  0
   -4.4672    4.5420   16.5093 O   0  0  0  0  0  0  0  0  0  0  0  0
   -7.3106    3.9916   16.3426 C   0  0  0  0  0  0  0  0  0  0  0  0
   -1.2064    3.9284   13.6174 N   0  0  0  0  0  0  0  0  0  0  0  0
   -1.5525    3.2217   12.3558 C   0  0  0  0  0  0  0  0  0  0  0  0
   -2.4125    4.1303   11.4724 C   0  0  0  0  0  0  0  0  0  0  0  0
   -1.5525    5.1486   10.8286 N   0  0  0  0  0  0  0  0  0  0  0  0
   -2.0603    6.5086   11.1696 C   0  0  0  0  0  0  0  0  0  0  0  0
   -1.5646    4.9438    9.3525 C   0  0  0  0  0  0  0  0  0  0  0  0
   -1.1717    7.5690   10.4994 C   0  0  0  0  0  0  0  0  0  0  0  0
   -0.6781    6.0074    8.6800 C   0  0  0  0  0  0  0  0  0  0  0  0
   -1.1843    7.3655    9.0229 N   0  0  0  0  0  0  0  0  0  0  0  0
   -1.3605    5.3468   18.4922 C   0  0  0  0  0  0  0  0  0  0  0  0
    5.1053    5.8302   18.6987 N   0  0  0  0  0  0  0  0  0  0  0  0
   -0.3518    5.1581   17.5174 C   0  0  0  0  0  0  0  0  0  0  0  0
   -0.7067    4.7743   16.1967 C   0  0  0  0  0  0  0  0  0  0  0  0
   -2.0722    4.5821   15.8497 C   0  0  0  0  0  0  0  0  0  0  0  0
   -3.0865    4.7571   16.8385 C   0  0  0  0  0  0  0  0  0  0  0  0
   -2.7256    5.1443   18.1581 C   0  0  0  0  0  0  0  0  0  0  0  0
    5.6129    5.0837   17.6112 C   0  0  0  0  0  0  0  0  0  0  0  0
    4.5624    4.5510   16.8299 C   0  0  0  0  0  0  0  0  0  0  0  0
    2.0215    4.7662   17.0782 C   0  0  0  0  0  0  0  0  0  0  0  0
    0.9924    5.3481   17.8674 C   0  0  0  0  0  0  0  0  0  0  0  0
    1.3289    6.1284   19.0076 C   0  0  0  0  0  0  0  0  0  0  0  0
    2.6921    6.3278   19.3559 C   0  0  0  0  0  0  0  0  0  0  0  0
    3.7256    5.7527   18.5520 C   0  0  0  0  0  0  0  0  0  0  0  0
    3.3946    4.9799   17.4239 C   0  0  0  0  0  0  0  0  0  0  0  0
  1  6  1  0  0  0  0
  2  4  1  0  0  0  0
  3  7  1  0  0  0  0
  4  5  1  0  0  0  0
  6  2  1  0  0  0  0
  7  8  1  0  0  0  0
  8  9  1  0  0  0  0
  9 10  1  0  0  0  0
 10 11  1  0  0  0  0
 10 12  1  0  0  0  0
 11 13  1  0  0  0  0
 13 15  1  0  0  0  0
 14 12  1  0  0  0  0
 15 14  1  0  0  0  0
 16 18  2  0  0  0  0
 16 22  1  0  0  0  0
 17 23  1  0  0  0  0
 17 29  1  0  0  0  0
 18 19  1  0  0  0  0
 18 26  1  0  0  0  0
 19 20  2  0  0  0  0
 20  3  1  0  0  0  0
 20 21  1  0  0  0  0
 21  5  1  0  0  0  0
 21 22  2  0  0  0  0
 23 24  2  0  0  0  0
 24 30  1  0  0  0  0
 25 26  2  0  0  0  0
 25 30  1  0  0  0  0
 26 27  1  0  0  0  0
 27 28  2  0  0  0  0
 28 29  1  0  0  0  0
 29 30  2  0  0  0  0
M  END
>  <CHROM.1>
-165.99192527,-61.84887140,166.50303509,-148.38301141,73.80843783,65.66872828
76.59365980,-123.44196392,159.64458145,4.26404772,157.71544538,-1.01825116
5.05103399,15.17899945,2.41093697,-0.16843331,-1.44840236

>  <Name>
1uts_lig

>  <RI>
0

>  <Rbt.Current_Directory>
/home/itssahil/PROJECTS/Mol_Feturizer/New_Systems/rnas/1uts

>  <Rbt.Executable>
rbdock ($Id: //depot/dev/client3/rdock/2013.1/src/exe/rbdock.cxx#4 $)

>  <Rbt.Library>
libRbt.so (2013.1, Build901 2013/11/27)

>  <Rbt.Parameter_File>
/export/apps/rDock/src/rDock_2013.1_src/data/scripts/dock_solv.prm

>  <Rbt.Receptor>
prm/pocket_docking_7.prm

>  <SCORE>
-42.6906

>  <SCORE.INTER>
-43.5696

>  <SCORE.INTER.CONST>
1

>  <SCORE.INTER.POLAR>
-2.30862

>  <SCORE.INTER.ROT>
10

>  <SCORE.INTER.SOLV>
11.9423

>  <SCORE.INTER.VDW>
-35.5985

>  <SCORE.INTER.norm>
-1.45232

>  <SCORE.INTRA>
0.879003

>  <SCORE.INTRA.DIHEDRAL>
-5.9315

>  <SCORE.INTRA.DIHEDRAL.0>
18.0451

>  <SCORE.INTRA.POLAR>
-0.533469

>  <SCORE.INTRA.POLAR.0>
-0.196815

>  <SCORE.INTRA.REPUL>
0

>  <SCORE.INTRA.REPUL.0>
0

>  <SCORE.INTRA.SOLV>
0.170869

>  <SCORE.INTRA.SOLV.lig_0>
-14.7906

>  <SCORE.INTRA.VDW>
5.57311

>  <SCORE.INTRA.VDW.0>
-0.411701

>  <SCORE.INTRA.norm>
0.0293001

>  <SCORE.RESTR>
0

>  <SCORE.RESTR.CAVITY>
0

>  <SCORE.RESTR.norm>
0

>  <SCORE.SYSTEM>
0

>  <SCORE.SYSTEM.CONST>
0

>  <SCORE.SYSTEM.DIHEDRAL>
0

>  <SCORE.SYSTEM.SOLV>
0

>  <SCORE.SYSTEM.norm>
0

>  <SCORE.heavy>
30

>  <SCORE.norm>
-1.42302

>  <RMSD>
9.558

$$$$
1uts_lig
 OpenBabel11021811413D
libRbt.so/2013.1/901 2013/11/27
 30 33  0  0  0  0  0  0  0  0999 V2000
   -2.5600    7.0824   11.4750 N   0  0  0  0  0  0  0  0  0  0  0  0
   -2.5973    4.9152   12.6321 C   0  0  0  0  0  0  0  0  0  0  0  0
   -2.6365    4.8871   16.9967 C   0  0  0  0  0  0  0  0  0  0  0  0
   -1.6760    3.7929   13.1190 C   0  0  0  0  0  0  0  0  0  0  0  0
   -1.9796    3.4881   14.4882 O   0  0  0  0  0  0  0  0  0  0  0  0
   -1.8469    5.7945   11.6301 C   0  0  0  0  0  0  0  0  0  0  0  0
   -3.3087    3.6392   17.4245 N   0  0  0  0  0  0  0  0  0  0  0  0
   -4.7432    3.6844   17.0357 C   0  0  0  0  0  0  0  0  0  0  0  0
   -4.8663    3.6815   15.5092 C   0  0  0  0  0  0  0  0  0  0  0  0
   -6.1708    3.0995   15.1214 N   0  0  0  0  0  0  0  0  0  0  0  0
   -6.0957    1.6134   15.2198 C   0  0  0  0  0  0  0  0  0  0  0  0
   -6.5016    3.5124   13.7282 C   0  0  0  0  0  0  0  0  0  0  0  0
   -7.4479    1.0050   14.8139 C   0  0  0  0  0  0  0  0  0  0  0  0
   -7.8537    2.9008   13.3193 C   0  0  0  0  0  0  0  0  0  0  0  0
   -7.7786    1.4167   13.4201 N   0  0  0  0  0  0  0  0  0  0  0  0
    1.5048    4.0817   15.8067 C   0  0  0  0  0  0  0  0  0  0  0  0
    5.3313    6.5999   20.4006 N   0  0  0  0  0  0  0  0  0  0  0  0
    1.2322    4.7728   17.0114 C   0  0  0  0  0  0  0  0  0  0  0  0
   -0.1120    5.0309   17.3909 C   0  0  0  0  0  0  0  0  0  0  0  0
   -1.1849    4.5946   16.5660 C   0  0  0  0  0  0  0  0  0  0  0  0
   -0.9074    3.9122   15.3435 C   0  0  0  0  0  0  0  0  0  0  0  0
    0.4401    3.6539   14.9703 C   0  0  0  0  0  0  0  0  0  0  0  0
    4.5432    7.4914   21.1634 C   0  0  0  0  0  0  0  0  0  0  0  0
    3.2052    7.4995   20.7078 C   0  0  0  0  0  0  0  0  0  0  0  0
    2.0732    6.1778   18.8275 C   0  0  0  0  0  0  0  0  0  0  0  0
    2.2952    5.2012   17.8188 C   0  0  0  0  0  0  0  0  0  0  0  0
    3.5952    4.6548   17.6350 C   0  0  0  0  0  0  0  0  0  0  0  0
    4.6700    5.0832   18.4603 C   0  0  0  0  0  0  0  0  0  0  0  0
    4.4404    6.0556   19.4833 C   0  0  0  0  0  0  0  0  0  0  0  0
    3.1551    6.5977   19.6663 C   0  0  0  0  0  0  0  0  0  0  0  0
  1  6  1  0  0  0  0
  2  4  1  0  0  0  0
  3  7  1  0  0  0  0
  4  5  1  0  0  0  0
  6  2  1  0  0  0  0
  7  8  1  0  0  0  0
  8  9  1  0  0  0  0
  9 10  1  0  0  0  0
 10 11  1  0  0  0  0
 10 12  1  0  0  0  0
 11 13  1  0  0  0  0
 13 15  1  0  0  0  0
 14 12  1  0  0  0  0
 15 14  1  0  0  0  0
 16 18  2  0  0  0  0
 16 22  1  0  0  0  0
 17 23  1  0  0  0  0
 17 29  1  0  0  0  0
 18 19  1  0  0  0  0
 18 26  1  0  0  0  0
 19 20  2  0  0  0  0
 20  3  1  0  0  0  0
 20 21  1  0  0  0  0
 21  5  1  0  0  0  0
 21 22  2  0  0  0  0
 23 24  2  0  0  0  0
 24 30  1  0  0  0  0
 25 26  2  0  0  0  0
 25 30  1  0  0  0  0
 26 27  1  0  0  0  0
 27 28  2  0  0  0  0
 28 29  1  0  0  0  0
 29 30  2  0  0  0  0
M  END
>  <CHROM.1>
-76.95212592,146.31295205,-145.06036509,-110.29760027,-162.89666730,65.75929537
153.50769222,-78.47929808,163.66486013,-108.77070675,135.90474025,-1.32802827
4.48736973,16.11818536,-2.73617966,0.40788253,1.76978379

>  <Name>
1uts_lig

>  <RI>
0

>  <Rbt.Current_Directory>
/home/itssahil/PROJECTS/Mol_Feturizer/New_Systems/rnas/1uts

>  <Rbt.Executable>
rbdock ($Id: //depot/dev/client3/rdock/2013.1/src/exe/rbdock.cxx#4 $)

>  <Rbt.Library>
libRbt.so (2013.1, Build901 2013/11/27)

>  <Rbt.Parameter_File>
/export/apps/rDock/src/rDock_2013.1_src/data/scripts/dock_solv.prm

>  <Rbt.Receptor>
prm/pocket_docking_5.prm

>  <SCORE>
-27.6687

>  <SCORE.INTER>
-31.9517

>  <SCORE.INTER.CONST>
1

>  <SCORE.INTER.POLAR>
-1.69517

>  <SCORE.INTER.ROT>
10

>  <SCORE.INTER.SOLV>
8.82295

>  <SCORE.INTER.VDW>
-28.8582

>  <SCORE.INTER.norm>
-1.06506

>  <SCORE.INTRA>
4.28303

>  <SCORE.INTRA.DIHEDRAL>
2.50855

>  <SCORE.INTRA.DIHEDRAL.0>
18.0451

>  <SCORE.INTRA.POLAR>
0.196815

>  <SCORE.INTRA.POLAR.0>
-0.196815

>  <SCORE.INTRA.REPUL>
0

>  <SCORE.INTRA.REPUL.0>
0

>  <SCORE.INTRA.SOLV>
-0.368221

>  <SCORE.INTRA.SOLV.lig_0>
-14.7906

>  <SCORE.INTRA.VDW>
2.5437

>  <SCORE.INTRA.VDW.0>
-0.411701

>  <SCORE.INTRA.norm>
0.142768

>  <SCORE.RESTR>
0

>  <SCORE.RESTR.CAVITY>
0

>  <SCORE.RESTR.norm>
0

>  <SCORE.SYSTEM>
0

>  <SCORE.SYSTEM.CONST>
0

>  <SCORE.SYSTEM.DIHEDRAL>
0

>  <SCORE.SYSTEM.SOLV>
0

>  <SCORE.SYSTEM.norm>
0

>  <SCORE.heavy>
30

>  <SCORE.norm>
-0.92229

>  <RMSD>
9.645

$$$$
1uts_lig
 OpenBabel11021811413D
libRbt.so/2013.1/901 2013/11/27
 30 33  0  0  0  0  0  0  0  0999 V2000
   -4.9851    3.9719   15.4130 N   0  0  0  0  0  0  0  0  0  0  0  0
   -4.6681    4.3832   17.8146 C   0  0  0  0  0  0  0  0  0  0  0  0
   -1.6371    3.7282   14.0837 C   0  0  0  0  0  0  0  0  0  0  0  0
   -3.1367    4.3858   17.8026 C   0  0  0  0  0  0  0  0  0  0  0  0
   -2.6712    4.9390   16.5628 O   0  0  0  0  0  0  0  0  0  0  0  0
   -5.1862    3.3998   16.7634 C   0  0  0  0  0  0  0  0  0  0  0  0
   -1.9832    4.8959   13.2417 N   0  0  0  0  0  0  0  0  0  0  0  0
   -2.7594    4.4459   12.0560 C   0  0  0  0  0  0  0  0  0  0  0  0
   -1.8172    3.8033   11.0337 C   0  0  0  0  0  0  0  0  0  0  0  0
   -1.9842    4.4700    9.7228 N   0  0  0  0  0  0  0  0  0  0  0  0
   -3.3737    4.2458    9.2298 C   0  0  0  0  0  0  0  0  0  0  0  0
   -0.9939    3.9158    8.7569 C   0  0  0  0  0  0  0  0  0  0  0  0
   -3.5497    4.9337    7.8664 C   0  0  0  0  0  0  0  0  0  0  0  0
   -1.1717    4.6012    7.3901 C   0  0  0  0  0  0  0  0  0  0  0  0
   -2.5603    4.3789    6.8996 N   0  0  0  0  0  0  0  0  0  0  0  0
    1.0158    4.9266   17.3610 C   0  0  0  0  0  0  0  0  0  0  0  0
    7.1208    3.7299   15.7010 N   0  0  0  0  0  0  0  0  0  0  0  0
    1.5510    4.3316   16.1936 C   0  0  0  0  0  0  0  0  0  0  0  0
    0.6857    3.9452   15.1356 C   0  0  0  0  0  0  0  0  0  0  0  0
   -0.7162    4.1570   15.2439 C   0  0  0  0  0  0  0  0  0  0  0  0
   -1.2555    4.7422   16.4288 C   0  0  0  0  0  0  0  0  0  0  0  0
   -0.3841    5.1298   17.4834 C   0  0  0  0  0  0  0  0  0  0  0  0
    7.3492    4.8686   14.8956 C   0  0  0  0  0  0  0  0  0  0  0  0
    6.1370    5.5373   14.6106 C   0  0  0  0  0  0  0  0  0  0  0  0
    3.7345    5.0210   15.3354 C   0  0  0  0  0  0  0  0  0  0  0  0
    2.9341    4.1247   16.0946 C   0  0  0  0  0  0  0  0  0  0  0  0
    3.5394    3.0225   16.7586 C   0  0  0  0  0  0  0  0  0  0  0  0
    4.9427    2.8191   16.6650 C   0  0  0  0  0  0  0  0  0  0  0  0
    5.7472    3.7305   15.9119 C   0  0  0  0  0  0  0  0  0  0  0  0
    5.1500    4.8212   15.2538 C   0  0  0  0  0  0  0  0  0  0  0  0
  1  6  1  0  0  0  0
  2  4  1  0  0  0  0
  3  7  1  0  0  0  0
  4  5  1  0  0  0  0
  6  2  1  0  0  0  0
  7  8  1  0  0  0  0
  8  9  1  0  0  0  0
  9 10  1  0  0  0  0
 10 11  1  0  0  0  0
 10 12  1  0  0  0  0
 11 13  1  0  0  0  0
 13 15  1  0  0  0  0
 14 12  1  0  0  0  0
 15 14  1  0  0  0  0
 16 18  2  0  0  0  0
 16 22  1  0  0  0  0
 17 23  1  0  0  0  0
 17 29  1  0  0  0  0
 18 19  1  0  0  0  0
 18 26  1  0  0  0  0
 19 20  2  0  0  0  0
 20  3  1  0  0  0  0
 20 21  1  0  0  0  0
 21  5  1  0  0  0  0
 21 22  2  0  0  0  0
 23 24  2  0  0  0  0
 24 30  1  0  0  0  0
 25 26  2  0  0  0  0
 25 30  1  0  0  0  0
 26 27  1  0  0  0  0
 27 28  2  0  0  0  0
 28 29  1  0  0  0  0
 29 30  2  0  0  0  0
M  END
>  <CHROM.1>
-83.71336377,67.03356653,174.49483645,-170.07268191,-73.34240257,-76.35715527
-125.57665634,-63.34318397,-100.83612984,-99.43603163,128.70643717,-0.01543874
4.31746361,14.00733127,2.52510460,0.00051885,-1.55046333

>  <Name>
1uts_lig

>  <RI>
0

>  <Rbt.Current_Directory>
/home/itssahil/PROJECTS/Mol_Feturizer/New_Systems/rnas/1uts

>  <Rbt.Executable>
rbdock ($Id: //depot/dev/client3/rdock/2013.1/src/exe/rbdock.cxx#4 $)

>  <Rbt.Library>
libRbt.so (2013.1, Build901 2013/11/27)

>  <Rbt.Parameter_File>
/export/apps/rDock/src/rDock_2013.1_src/data/scripts/dock_solv.prm

>  <Rbt.Receptor>
prm/pocket_docking_6.prm

>  <SCORE>
-40.7788

>  <SCORE.INTER>
-39.4347

>  <SCORE.INTER.CONST>
1

>  <SCORE.INTER.POLAR>
-2.01903

>  <SCORE.INTER.ROT>
10

>  <SCORE.INTER.SOLV>
9.19773

>  <SCORE.INTER.VDW>
-32.8923

>  <SCORE.INTER.norm>
-1.31449

>  <SCORE.INTRA>
-1.34415

>  <SCORE.INTRA.DIHEDRAL>
-1.13437

>  <SCORE.INTRA.DIHEDRAL.0>
18.0451

>  <SCORE.INTRA.POLAR>
-0.578827

>  <SCORE.INTRA.POLAR.0>
-0.196815

>  <SCORE.INTRA.REPUL>
0

>  <SCORE.INTRA.REPUL.0>
0

>  <SCORE.INTRA.SOLV>
0.342029

>  <SCORE.INTRA.SOLV.lig_0>
-14.7906

>  <SCORE.INTRA.VDW>
1.02004

>  <SCORE.INTRA.VDW.0>
-0.411701

>  <SCORE.INTRA.norm>
-0.0448049

>  <SCORE.RESTR>
0

>  <SCORE.RESTR.CAVITY>
0

>  <SCORE.RESTR.norm>
0

>  <SCORE.SYSTEM>
0

>  <SCORE.SYSTEM.CONST>
0

>  <SCORE.SYSTEM.DIHEDRAL>
0

>  <SCORE.SYSTEM.SOLV>
0

>  <SCORE.SYSTEM.norm>
0

>  <SCORE.heavy>
30

>  <SCORE.norm>
-1.35929

>  <RMSD>
9.646

$$$$
1uts_lig
 OpenBabel11021811413D
libRbt.so/2013.1/901 2013/11/27
 30 33  0  0  0  0  0  0  0  0999 V2000
   -5.4698    4.3740   18.0118 N   0  0  0  0  0  0  0  0  0  0  0  0
   -4.1882    2.8890   16.5322 C   0  0  0  0  0  0  0  0  0  0  0  0
   -2.2014    4.2237   14.8918 C   0  0  0  0  0  0  0  0  0  0  0  0
   -3.6566    1.4627   16.3636 C   0  0  0  0  0  0  0  0  0  0  0  0
   -2.9092    1.3745   15.1416 O   0  0  0  0  0  0  0  0  0  0  0  0
   -4.9083    3.0110   17.8763 C   0  0  0  0  0  0  0  0  0  0  0  0
   -1.7777    4.9668   13.6834 N   0  0  0  0  0  0  0  0  0  0  0  0
   -2.0938    4.1696   12.4687 C   0  0  0  0  0  0  0  0  0  0  0  0
   -2.8224    5.0483   11.4477 C   0  0  0  0  0  0  0  0  0  0  0  0
   -2.8433    4.3644   10.1351 N   0  0  0  0  0  0  0  0  0  0  0  0
   -1.4866    4.4371    9.5204 C   0  0  0  0  0  0  0  0  0  0  0  0
   -3.8499    5.0194    9.2527 C   0  0  0  0  0  0  0  0  0  0  0  0
   -1.5054    3.7311    8.1550 C   0  0  0  0  0  0  0  0  0  0  0  0
   -3.8670    4.3156    7.8838 C   0  0  0  0  0  0  0  0  0  0  0  0
   -2.5110    4.3865    7.2716 N   0  0  0  0  0  0  0  0  0  0  0  0
    0.7816    1.1728   15.8961 C   0  0  0  0  0  0  0  0  0  0  0  0
    6.6048    3.7306   16.5444 N   0  0  0  0  0  0  0  0  0  0  0  0
    1.1661    2.5289   15.7679 C   0  0  0  0  0  0  0  0  0  0  0  0
    0.1945    3.5123   15.4418 C   0  0  0  0  0  0  0  0  0  0  0  0
   -1.1638    3.1395   15.2468 C   0  0  0  0  0  0  0  0  0  0  0  0
   -1.5463    1.7692   15.3605 C   0  0  0  0  0  0  0  0  0  0  0  0
   -0.5700    0.7895   15.6902 C   0  0  0  0  0  0  0  0  0  0  0  0
    7.0266    2.4238   16.8794 C   0  0  0  0  0  0  0  0  0  0  0  0
    5.9359    1.5249   16.8778 C   0  0  0  0  0  0  0  0  0  0  0  0
    3.4578    1.9067   16.3512 C   0  0  0  0  0  0  0  0  0  0  0  0
    2.5074    2.8886   15.9602 C   0  0  0  0  0  0  0  0  0  0  0  0
    2.9207    4.2342   15.7578 C   0  0  0  0  0  0  0  0  0  0  0  0
    4.2824    4.5957   15.9441 C   0  0  0  0  0  0  0  0  0  0  0  0
    5.2387    3.6027   16.3240 C   0  0  0  0  0  0  0  0  0  0  0  0
    4.8316    2.2711   16.5253 C   0  0  0  0  0  0  0  0  0  0  0  0
  1  6  1  0  0  0  0
  2  4  1  0  0  0  0
  3  7  1  0  0  0  0
  4  5  1  0  0  0  0
  6  2  1  0  0  0  0
  7  8  1  0  0  0  0
  8  9  1  0  0  0  0
  9 10  1  0  0  0  0
 10 11  1  0  0  0  0
 10 12  1  0  0  0  0
 11 13  1  0  0  0  0
 13 15  1  0  0  0  0
 14 12  1  0  0  0  0
 15 14  1  0  0  0  0
 16 18  2  0  0  0  0
 16 22  1  0  0  0  0
 17 23  1  0  0  0  0
 17 29  1  0  0  0  0
 18 19  1  0  0  0  0
 18 26  1  0  0  0  0
 19 20  2  0  0  0  0
 20  3  1  0  0  0  0
 20 21  1  0  0  0  0
 21  5  1  0  0  0  0
 21 22  2  0  0  0  0
 23 24  2  0  0  0  0
 24 30  1  0  0  0  0
 25 26  2  0  0  0  0
 25 30  1  0  0  0  0
 26 27  1  0  0  0  0
 27 28  2  0  0  0  0
 28 29  1  0  0  0  0
 29 30  2  0  0  0  0
M  END
>  <CHROM.1>
174.43698625,-176.36994997,79.34997100,86.19660121,-177.65584931,131.06391744
166.40613181,-74.36213841,-3.34503266,55.43495198,-88.04415541,-0.32762712
3.31551980,14.21287972,2.48657575,0.01409284,-1.35008691

>  <Name>
1uts_lig

>  <RI>
0

>  <Rbt.Current_Directory>
/home/itssahil/PROJECTS/Mol_Feturizer/New_Systems/rnas/1uts

>  <Rbt.Executable>
rbdock ($Id: //depot/dev/client3/rdock/2013.1/src/exe/rbdock.cxx#4 $)

>  <Rbt.Library>
libRbt.so (2013.1, Build901 2013/11/27)

>  <Rbt.Parameter_File>
/export/apps/rDock/src/rDock_2013.1_src/data/scripts/dock_solv.prm

>  <Rbt.Receptor>
prm/pocket_docking_5.prm

>  <SCORE>
-35.0245

>  <SCORE.INTER>
-37.3919

>  <SCORE.INTER.CONST>
1

>  <SCORE.INTER.POLAR>
-3.05256

>  <SCORE.INTER.ROT>
10

>  <SCORE.INTER.SOLV>
8.82596

>  <SCORE.INTER.VDW>
-27.9614

>  <SCORE.INTER.norm>
-1.2464

>  <SCORE.INTRA>
1.7353

>  <SCORE.INTRA.DIHEDRAL>
-4.15498

>  <SCORE.INTRA.DIHEDRAL.0>
18.0451

>  <SCORE.INTRA.POLAR>
0.196815

>  <SCORE.INTRA.POLAR.0>
-0.196815

>  <SCORE.INTRA.REPUL>
0

>  <SCORE.INTRA.REPUL.0>
0

>  <SCORE.INTRA.SOLV>
-0.615079

>  <SCORE.INTRA.SOLV.lig_0>
-14.7906

>  <SCORE.INTRA.VDW>
3.45116

>  <SCORE.INTRA.VDW.0>
-0.411701

>  <SCORE.INTRA.norm>
0.0578435

>  <SCORE.RESTR>
0.632092

>  <SCORE.RESTR.CAVITY>
0.632092

>  <SCORE.RESTR.norm>
0.0210697

>  <SCORE.SYSTEM>
0

>  <SCORE.SYSTEM.CONST>
0

>  <SCORE.SYSTEM.DIHEDRAL>
0

>  <SCORE.SYSTEM.SOLV>
0

>  <SCORE.SYSTEM.norm>
0

>  <SCORE.heavy>
30

>  <SCORE.norm>
-1.16748

>  <RMSD>
9.648

$$$$
1uts_lig
 OpenBabel11021811413D
libRbt.so/2013.1/901 2013/11/27
 30 33  0  0  0  0  0  0  0  0999 V2000
   -7.3013    3.6534   13.2210 N   0  0  0  0  0  0  0  0  0  0  0  0
   -5.9469    2.9487   15.1462 C   0  0  0  0  0  0  0  0  0  0  0  0
   -3.0754    4.2624   15.5025 C   0  0  0  0  0  0  0  0  0  0  0  0
   -5.0796    1.7761   15.6131 C   0  0  0  0  0  0  0  0  0  0  0  0
   -4.5023    2.0893   16.8892 O   0  0  0  0  0  0  0  0  0  0  0  0
   -6.8732    2.4837   14.0210 C   0  0  0  0  0  0  0  0  0  0  0  0
   -2.4245    4.6360   14.2262 N   0  0  0  0  0  0  0  0  0  0  0  0
   -2.6191    3.5509   13.2284 C   0  0  0  0  0  0  0  0  0  0  0  0
   -1.7681    3.8309   11.9863 C   0  0  0  0  0  0  0  0  0  0  0  0
   -2.3974    4.9088   11.1907 N   0  0  0  0  0  0  0  0  0  0  0  0
   -2.0516    4.7249    9.7518 C   0  0  0  0  0  0  0  0  0  0  0  0
   -1.9110    6.2307   11.6776 C   0  0  0  0  0  0  0  0  0  0  0  0
   -2.7005    5.8451    8.9227 C   0  0  0  0  0  0  0  0  0  0  0  0
   -2.5573    7.3531   10.8457 C   0  0  0  0  0  0  0  0  0  0  0  0
   -2.2134    7.1673    9.4084 N   0  0  0  0  0  0  0  0  0  0  0  0
   -0.9530    0.8874   17.3243 C   0  0  0  0  0  0  0  0  0  0  0  0
    5.3835    1.8118   16.3481 N   0  0  0  0  0  0  0  0  0  0  0  0
   -0.2314    1.9021   16.6514 C   0  0  0  0  0  0  0  0  0  0  0  0
   -0.9254    2.9927   16.0629 C   0  0  0  0  0  0  0  0  0  0  0  0
   -2.3425    3.0702   16.1502 C   0  0  0  0  0  0  0  0  0  0  0  0
   -3.0695    2.0375   16.8151 C   0  0  0  0  0  0  0  0  0  0  0  0
   -2.3692    0.9497   17.4050 C   0  0  0  0  0  0  0  0  0  0  0  0
    5.5744    3.2066   16.2224 C   0  0  0  0  0  0  0  0  0  0  0  0
    4.3356    3.8870   16.2106 C   0  0  0  0  0  0  0  0  0  0  0  0
    1.9405    2.9989   16.4071 C   0  0  0  0  0  0  0  0  0  0  0  0
    1.1656    1.8182   16.5682 C   0  0  0  0  0  0  0  0  0  0  0  0
    1.8101    0.5533   16.6517 C   0  0  0  0  0  0  0  0  0  0  0  0
    3.2268    0.4705   16.5765 C   0  0  0  0  0  0  0  0  0  0  0  0
    4.0044    1.6615   16.4284 C   0  0  0  0  0  0  0  0  0  0  0  0
    3.3685    2.9137   16.3450 C   0  0  0  0  0  0  0  0  0  0  0  0
  1  6  1  0  0  0  0
  2  4  1  0  0  0  0
  3  7  1  0  0  0  0
  4  5  1  0  0  0  0
  6  2  1  0  0  0  0
  7  8  1  0  0  0  0
  8  9  1  0  0  0  0
  9 10  1  0  0  0  0
 10 11  1  0  0  0  0
 10 12  1  0  0  0  0
 11 13  1  0  0  0  0
 13 15  1  0  0  0  0
 14 12  1  0  0  0  0
 15 14  1  0  0  0  0
 16 18  2  0  0  0  0
 16 22  1  0  0  0  0
 17 23  1  0  0  0  0
 17 29  1  0  0  0  0
 18 19  1  0  0  0  0
 18 26  1  0  0  0  0
 19 20  2  0  0  0  0
 20  3  1  0  0  0  0
 20 21  1  0  0  0  0
 21  5  1  0  0  0  0
 21 22  2  0  0  0  0
 23 24  2  0  0  0  0
 24 30  1  0  0  0  0
 25 26  2  0  0  0  0
 25 30  1  0  0  0  0
 26 27  1  0  0  0  0
 27 28  2  0  0  0  0
 28 29  1  0  0  0  0
 29 30  2  0  0  0  0
M  END
>  <CHROM.1>
-45.71748121,-163.60929713,67.52459195,-121.47441094,-157.70412007,-171.19170561
-75.13640382,-151.06166557,-154.63349962,37.54733132,73.66640338,-1.24171339
3.30279983,14.53309742,2.53136793,-0.04618050,-0.96292014

>  <Name>
1uts_lig

>  <RI>
0

>  <Rbt.Current_Directory>
/home/itssahil/PROJECTS/Mol_Feturizer/New_Systems/rnas/1uts

>  <Rbt.Executable>
rbdock ($Id: //depot/dev/client3/rdock/2013.1/src/exe/rbdock.cxx#4 $)

>  <Rbt.Library>
libRbt.so (2013.1, Build901 2013/11/27)

>  <Rbt.Parameter_File>
/export/apps/rDock/src/rDock_2013.1_src/data/scripts/dock_solv.prm

>  <Rbt.Receptor>
prm/pocket_docking_6.prm

>  <SCORE>
-30.9506

>  <SCORE.INTER>
-33.0724

>  <SCORE.INTER.CONST>
1

>  <SCORE.INTER.POLAR>
-1.91491

>  <SCORE.INTER.ROT>
10

>  <SCORE.INTER.SOLV>
10.3984

>  <SCORE.INTER.VDW>
-29.398

>  <SCORE.INTER.norm>
-1.10241

>  <SCORE.INTRA>
2.12184

>  <SCORE.INTRA.DIHEDRAL>
1.05766

>  <SCORE.INTRA.DIHEDRAL.0>
18.0451

>  <SCORE.INTRA.POLAR>
0.196815

>  <SCORE.INTRA.POLAR.0>
-0.196815

>  <SCORE.INTRA.REPUL>
0

>  <SCORE.INTRA.REPUL.0>
0

>  <SCORE.INTRA.SOLV>
-0.315421

>  <SCORE.INTRA.SOLV.lig_0>
-14.7906

>  <SCORE.INTRA.VDW>
1.08155

>  <SCORE.INTRA.VDW.0>
-0.411701

>  <SCORE.INTRA.norm>
0.0707279

>  <SCORE.RESTR>
0

>  <SCORE.RESTR.CAVITY>
0

>  <SCORE.RESTR.norm>
0

>  <SCORE.SYSTEM>
0

>  <SCORE.SYSTEM.CONST>
0

>  <SCORE.SYSTEM.DIHEDRAL>
0

>  <SCORE.SYSTEM.SOLV>
0

>  <SCORE.SYSTEM.norm>
0

>  <SCORE.heavy>
30

>  <SCORE.norm>
-1.03169

>  <RMSD>
9.656

$$$$
1uts_lig
 OpenBabel11021811413D
libRbt.so/2013.1/901 2013/11/27
 30 33  0  0  0  0  0  0  0  0999 V2000
   -8.1544    3.8836   15.4950 N   0  0  0  0  0  0  0  0  0  0  0  0
   -5.9102    4.2492   16.4262 C   0  0  0  0  0  0  0  0  0  0  0  0
   -1.2207    4.0840   15.8523 C   0  0  0  0  0  0  0  0  0  0  0  0
   -4.6015    3.5571   16.8183 C   0  0  0  0  0  0  0  0  0  0  0  0
   -3.9666    3.0370   15.6409 O   0  0  0  0  0  0  0  0  0  0  0  0
   -6.8720    3.2222   15.8258 C   0  0  0  0  0  0  0  0  0  0  0  0
   -0.3715    4.2115   14.6462 N   0  0  0  0  0  0  0  0  0  0  0  0
   -1.1653    3.8694   13.4363 C   0  0  0  0  0  0  0  0  0  0  0  0
   -2.0125    5.0737   13.0151 C   0  0  0  0  0  0  0  0  0  0  0  0
   -1.8833    5.2805   11.5552 N   0  0  0  0  0  0  0  0  0  0  0  0
   -2.0403    6.7312   11.2476 C   0  0  0  0  0  0  0  0  0  0  0  0
   -2.9257    4.4833   10.8490 C   0  0  0  0  0  0  0  0  0  0  0  0
   -1.9105    6.9494    9.7314 C   0  0  0  0  0  0  0  0  0  0  0  0
   -2.7991    4.7039    9.3308 C   0  0  0  0  0  0  0  0  0  0  0  0
   -2.9537    6.1533    9.0247 N   0  0  0  0  0  0  0  0  0  0  0  0
   -2.1574   -0.1338   16.5920 C   0  0  0  0  0  0  0  0  0  0  0  0
    3.1591   -3.4691   17.8600 N   0  0  0  0  0  0  0  0  0  0  0  0
   -0.8220    0.3257   16.6864 C   0  0  0  0  0  0  0  0  0  0  0  0
   -0.5254    1.6936   16.4450 C   0  0  0  0  0  0  0  0  0  0  0  0
   -1.5659    2.6037   16.1118 C   0  0  0  0  0  0  0  0  0  0  0  0
   -2.9095    2.1349   16.0012 C   0  0  0  0  0  0  0  0  0  0  0  0
   -3.2009    0.7651   16.2470 C   0  0  0  0  0  0  0  0  0  0  0  0
    2.4814   -4.5981   17.3466 C   0  0  0  0  0  0  0  0  0  0  0  0
    1.2087   -4.2395   16.8472 C   0  0  0  0  0  0  0  0  0  0  0  0
    0.0454   -1.9603   16.7215 C   0  0  0  0  0  0  0  0  0  0  0  0
    0.1988   -0.5777   17.0139 C   0  0  0  0  0  0  0  0  0  0  0  0
    1.3916   -0.1120   17.6324 C   0  0  0  0  0  0  0  0  0  0  0  0
    2.4295   -1.0275   17.9555 C   0  0  0  0  0  0  0  0  0  0  0  0
    2.2779   -2.4157   17.6474 C   0  0  0  0  0  0  0  0  0  0  0  0
    1.0983   -2.8784   17.0361 C   0  0  0  0  0  0  0  0  0  0  0  0
  1  6  1  0  0  0  0
  2  4  1  0  0  0  0
  3  7  1  0  0  0  0
  4  5  1  0  0  0  0
  6  2  1  0  0  0  0
  7  8  1  0  0  0  0
  8  9  1  0  0  0  0
  9 10  1  0  0  0  0
 10 11  1  0  0  0  0
 10 12  1  0  0  0  0
 11 13  1  0  0  0  0
 13 15  1  0  0  0  0
 14 12  1  0  0  0  0
 15 14  1  0  0  0  0
 16 18  2  0  0  0  0
 16 22  1  0  0  0  0
 17 23  1  0  0  0  0
 17 29  1  0  0  0  0
 18 19  1  0  0  0  0
 18 26  1  0  0  0  0
 19 20  2  0  0  0  0
 20  3  1  0  0  0  0
 20 21  1  0  0  0  0
 21  5  1  0  0  0  0
 21 22  2  0  0  0  0
 23 24  2  0  0  0  0
 24 30  1  0  0  0  0
 25 26  2  0  0  0  0
 25 30  1  0  0  0  0
 26 27  1  0  0  0  0
 27 28  2  0  0  0  0
 28 29  1  0  0  0  0
 29 30  2  0  0  0  0
M  END
>  <CHROM.1>
178.87730266,63.40066400,68.69396336,-167.07269737,177.87780832,80.94490286
133.53754648,-149.89878139,25.81476823,65.07666232,-94.09827313,-1.64090216
2.02222324,14.98600491,2.10968036,0.42388659,-0.85074262

>  <Name>
1uts_lig

>  <RI>
0

>  <Rbt.Current_Directory>
/home/itssahil/PROJECTS/Mol_Feturizer/New_Systems/rnas/1uts

>  <Rbt.Executable>
rbdock ($Id: //depot/dev/client3/rdock/2013.1/src/exe/rbdock.cxx#4 $)

>  <Rbt.Library>
libRbt.so (2013.1, Build901 2013/11/27)

>  <Rbt.Parameter_File>
/export/apps/rDock/src/rDock_2013.1_src/data/scripts/dock_solv.prm

>  <Rbt.Receptor>
prm/pocket_docking_5.prm

>  <SCORE>
-32.0286

>  <SCORE.INTER>
-31.9366

>  <SCORE.INTER.CONST>
1

>  <SCORE.INTER.POLAR>
-2.38254

>  <SCORE.INTER.ROT>
10

>  <SCORE.INTER.SOLV>
9.75254

>  <SCORE.INTER.VDW>
-26.8668

>  <SCORE.INTER.norm>
-1.06455

>  <SCORE.INTRA>
-0.0920758

>  <SCORE.INTRA.DIHEDRAL>
-2.99874

>  <SCORE.INTRA.DIHEDRAL.0>
18.0451

>  <SCORE.INTRA.POLAR>
0.196815

>  <SCORE.INTRA.POLAR.0>
-0.196815

>  <SCORE.INTRA.REPUL>
0

>  <SCORE.INTRA.REPUL.0>
0

>  <SCORE.INTRA.SOLV>
-0.468127

>  <SCORE.INTRA.SOLV.lig_0>
-14.7906

>  <SCORE.INTRA.VDW>
0.972187

>  <SCORE.INTRA.VDW.0>
-0.411701

>  <SCORE.INTRA.norm>
-0.00306919

>  <SCORE.RESTR>
0

>  <SCORE.RESTR.CAVITY>
0

>  <SCORE.RESTR.norm>
0

>  <SCORE.SYSTEM>
0

>  <SCORE.SYSTEM.CONST>
0

>  <SCORE.SYSTEM.DIHEDRAL>
0

>  <SCORE.SYSTEM.SOLV>
0

>  <SCORE.SYSTEM.norm>
0

>  <SCORE.heavy>
30

>  <SCORE.norm>
-1.06762

>  <RMSD>
9.662

$$$$
1uts_lig
 OpenBabel11021811413D
libRbt.so/2013.1/901 2013/11/27
 30 33  0  0  0  0  0  0  0  0999 V2000
   -1.6888   -3.0651   14.8204 N   0  0  0  0  0  0  0  0  0  0  0  0
   -1.7391   -1.3502   16.5794 C   0  0  0  0  0  0  0  0  0  0  0  0
   -1.1906    3.5229   14.5012 C   0  0  0  0  0  0  0  0  0  0  0  0
   -2.1183    0.1328   16.5341 C   0  0  0  0  0  0  0  0  0  0  0  0
   -1.5775    0.7264   15.3445 O   0  0  0  0  0  0  0  0  0  0  0  0
   -2.5662   -2.1214   15.5492 C   0  0  0  0  0  0  0  0  0  0  0  0
   -1.8283    2.6886   13.4573 N   0  0  0  0  0  0  0  0  0  0  0  0
   -2.5902    3.5553   12.5197 C   0  0  0  0  0  0  0  0  0  0  0  0
   -1.7892    3.7518   11.2292 C   0  0  0  0  0  0  0  0  0  0  0  0
   -2.0212    5.1179   10.7086 N   0  0  0  0  0  0  0  0  0  0  0  0
   -1.0383    5.4051    9.6245 C   0  0  0  0  0  0  0  0  0  0  0  0
   -1.8735    6.1014   11.8185 C   0  0  0  0  0  0  0  0  0  0  0  0
   -1.2737    6.8248    9.0839 C   0  0  0  0  0  0  0  0  0  0  0  0
   -2.1054    7.5237   11.2776 C   0  0  0  0  0  0  0  0  0  0  0  0
   -1.1250    7.8090   10.1933 N   0  0  0  0  0  0  0  0  0  0  0  0
    1.9424    1.2751   16.5859 C   0  0  0  0  0  0  0  0  0  0  0  0
    7.0903    5.1881   17.0893 N   0  0  0  0  0  0  0  0  0  0  0  0
    2.1746    2.6114   16.1816 C   0  0  0  0  0  0  0  0  0  0  0  0
    1.1553    3.3339   15.5060 C   0  0  0  0  0  0  0  0  0  0  0  0
   -0.0989    2.7202   15.2373 C   0  0  0  0  0  0  0  0  0  0  0  0
   -0.3252    1.3672   15.6315 C   0  0  0  0  0  0  0  0  0  0  0  0
    0.6977    0.6499   16.3101 C   0  0  0  0  0  0  0  0  0  0  0  0
    7.0234    6.0824   15.9969 C   0  0  0  0  0  0  0  0  0  0  0  0
    5.8403    5.8806   15.2505 C   0  0  0  0  0  0  0  0  0  0  0  0
    3.9031    4.2412   15.6020 C   0  0  0  0  0  0  0  0  0  0  0  0
    3.4143    3.2094   16.4486 C   0  0  0  0  0  0  0  0  0  0  0  0
    4.1812    2.7899   17.5703 C   0  0  0  0  0  0  0  0  0  0  0  0
    5.4334    3.4032   17.8452 C   0  0  0  0  0  0  0  0  0  0  0  0
    5.9160    4.4506   16.9996 C   0  0  0  0  0  0  0  0  0  0  0  0
    5.1588    4.8665   15.8891 C   0  0  0  0  0  0  0  0  0  0  0  0
  1  6  1  0  0  0  0
  2  4  1  0  0  0  0
  3  7  1  0  0  0  0
  4  5  1  0  0  0  0
  6  2  1  0  0  0  0
  7  8  1  0  0  0  0
  8  9  1  0  0  0  0
  9 10  1  0  0  0  0
 10 11  1  0  0  0  0
 10 12  1  0  0  0  0
 11 13  1  0  0  0  0
 13 15  1  0  0  0  0
 14 12  1  0  0  0  0
 15 14  1  0  0  0  0
 16 18  2  0  0  0  0
 16 22  1  0  0  0  0
 17 23  1  0  0  0  0
 17 29  1  0  0  0  0
 18 19  1  0  0  0  0
 18 26  1  0  0  0  0
 19 20  2  0  0  0  0
 20  3  1  0  0  0  0
 20 21  1  0  0  0  0
 21  5  1  0  0  0  0
 21 22  2  0  0  0  0
 23 24  2  0  0  0  0
 24 30  1  0  0  0  0
 25 26  2  0  0  0  0
 25 30  1  0  0  0  0
 26 27  1  0  0  0  0
 27 28  2  0  0  0  0
 28 29  1  0  0  0  0
 29 30  2  0  0  0  0
M  END
>  <CHROM.1>
154.20837122,-73.20654224,-164.34873646,-96.17057907,135.90274949,101.89207335
-145.06233418,168.45552879,152.02935531,135.78343125,-128.62123242,0.74707713
3.25590735,14.47625984,2.80786838,-0.50001527,-0.63200467

>  <Name>
1uts_lig

>  <RI>
0

>  <Rbt.Current_Directory>
/home/itssahil/PROJECTS/Mol_Feturizer/New_Systems/rnas/1uts

>  <Rbt.Executable>
rbdock ($Id: //depot/dev/client3/rdock/2013.1/src/exe/rbdock.cxx#4 $)

>  <Rbt.Library>
libRbt.so (2013.1, Build901 2013/11/27)

>  <Rbt.Parameter_File>
/export/apps/rDock/src/rDock_2013.1_src/data/scripts/dock_solv.prm

>  <Rbt.Receptor>
prm/pocket_docking_6.prm

>  <SCORE>
-43.4974

>  <SCORE.INTER>
-51.1905

>  <SCORE.INTER.CONST>
1

>  <SCORE.INTER.POLAR>
-4.51705

>  <SCORE.INTER.ROT>
10

>  <SCORE.INTER.SOLV>
11.321

>  <SCORE.INTER.VDW>
-33.1105

>  <SCORE.INTER.norm>
-1.70635

>  <SCORE.INTRA>
7.10817

>  <SCORE.INTRA.DIHEDRAL>
5.29145

>  <SCORE.INTRA.DIHEDRAL.0>
18.0451

>  <SCORE.INTRA.POLAR>
-0.111397

>  <SCORE.INTRA.POLAR.0>
-0.196815

>  <SCORE.INTRA.REPUL>
0

>  <SCORE.INTRA.REPUL.0>
0

>  <SCORE.INTRA.SOLV>
-0.167739

>  <SCORE.INTRA.SOLV.lig_0>
-14.7906

>  <SCORE.INTRA.VDW>
4.92506

>  <SCORE.INTRA.VDW.0>
-0.411701

>  <SCORE.INTRA.norm>
0.236939

>  <SCORE.RESTR>
0.585005

>  <SCORE.RESTR.CAVITY>
0.585005

>  <SCORE.RESTR.norm>
0.0195002

>  <SCORE.SYSTEM>
0

>  <SCORE.SYSTEM.CONST>
0

>  <SCORE.SYSTEM.DIHEDRAL>
0

>  <SCORE.SYSTEM.SOLV>
0

>  <SCORE.SYSTEM.norm>
0

>  <SCORE.heavy>
30

>  <SCORE.norm>
-1.44991

>  <RMSD>
9.668

$$$$
1uts_lig
 OpenBabel11021811413D
libRbt.so/2013.1/901 2013/11/27
 30 33  0  0  0  0  0  0  0  0999 V2000
    0.7315   -3.0642   15.7144 N   0  0  0  0  0  0  0  0  0  0  0  0
   -0.4169   -0.8925   15.6683 C   0  0  0  0  0  0  0  0  0  0  0  0
   -1.9846    4.0146   15.0179 C   0  0  0  0  0  0  0  0  0  0  0  0
   -0.2265    0.5962   15.3641 C   0  0  0  0  0  0  0  0  0  0  0  0
   -1.2397    1.3540   16.0416 O   0  0  0  0  0  0  0  0  0  0  0  0
    0.8302   -1.6664   15.2370 C   0  0  0  0  0  0  0  0  0  0  0  0
   -1.2521    4.0726   13.7325 N   0  0  0  0  0  0  0  0  0  0  0  0
   -2.1676    4.5323   12.6547 C   0  0  0  0  0  0  0  0  0  0  0  0
   -1.3526    4.9621   11.4313 C   0  0  0  0  0  0  0  0  0  0  0  0
   -2.2207    5.7207   10.5029 N   0  0  0  0  0  0  0  0  0  0  0  0
   -1.4448    6.0704    9.2783 C   0  0  0  0  0  0  0  0  0  0  0  0
   -2.7082    6.9556   11.1800 C   0  0  0  0  0  0  0  0  0  0  0  0
   -2.3422    6.8619    8.3132 C   0  0  0  0  0  0  0  0  0  0  0  0
   -3.6039    7.7509   10.2132 C   0  0  0  0  0  0  0  0  0  0  0  0
   -2.8291    8.0977    8.9894 N   0  0  0  0  0  0  0  0  0  0  0  0
    0.8250    3.5134   18.3450 C   0  0  0  0  0  0  0  0  0  0  0  0
    3.1043    9.1882   20.2587 N   0  0  0  0  0  0  0  0  0  0  0  0
    0.5071    4.8086   17.8711 C   0  0  0  0  0  0  0  0  0  0  0  0
   -0.4037    4.9639   16.7923 C   0  0  0  0  0  0  0  0  0  0  0  0
   -0.9997    3.8226   16.1888 C   0  0  0  0  0  0  0  0  0  0  0  0
   -0.6653    2.5166   16.6576 C   0  0  0  0  0  0  0  0  0  0  0  0
    0.2448    2.3674   17.7398 C   0  0  0  0  0  0  0  0  0  0  0  0
    4.3420    8.5487   20.4974 C   0  0  0  0  0  0  0  0  0  0  0  0
    4.3064    7.2028   20.0675 C   0  0  0  0  0  0  0  0  0  0  0  0
    2.4345    5.8543   18.9532 C   0  0  0  0  0  0  0  0  0  0  0  0
    1.0998    5.9291   18.4701 C   0  0  0  0  0  0  0  0  0  0  0  0
    0.3698    7.1436   18.5890 C   0  0  0  0  0  0  0  0  0  0  0  0
    0.9749    8.2814   19.1881 C   0  0  0  0  0  0  0  0  0  0  0  0
    2.3226    8.2072   19.6606 C   0  0  0  0  0  0  0  0  0  0  0  0
    3.0461    7.0062   19.5443 C   0  0  0  0  0  0  0  0  0  0  0  0
  1  6  1  0  0  0  0
  2  4  1  0  0  0  0
  3  7  1  0  0  0  0
  4  5  1  0  0  0  0
  6  2  1  0  0  0  0
  7  8  1  0  0  0  0
  8  9  1  0  0  0  0
  9 10  1  0  0  0  0
 10 11  1  0  0  0  0
 10 12  1  0  0  0  0
 11 13  1  0  0  0  0
 13 15  1  0  0  0  0
 14 12  1  0  0  0  0
 15 14  1  0  0  0  0
 16 18  2  0  0  0  0
 16 22  1  0  0  0  0
 17 23  1  0  0  0  0
 17 29  1  0  0  0  0
 18 19  1  0  0  0  0
 18 26  1  0  0  0  0
 19 20  2  0  0  0  0
 20  3  1  0  0  0  0
 20 21  1  0  0  0  0
 21  5  1  0  0  0  0
 21 22  2  0  0  0  0
 23 24  2  0  0  0  0
 24 30  1  0  0  0  0
 25 26  2  0  0  0  0
 25 30  1  0  0  0  0
 26 27  1  0  0  0  0
 27 28  2  0  0  0  0
 28 29  1  0  0  0  0
 29 30  2  0  0  0  0
M  END
>  <CHROM.1>
-53.60877413,-166.57804060,-168.46385465,136.01298729,171.52240392,164.49220739
-166.13411670,-176.80408621,34.65528661,87.12481311,113.12304461,-0.10030426
4.73602826,15.43108603,0.04554604,1.08986826,3.00520160

>  <Name>
1uts_lig

>  <RI>
0

>  <Rbt.Current_Directory>
/home/itssahil/PROJECTS/Mol_Feturizer/New_Systems/rnas/1uts

>  <Rbt.Executable>
rbdock ($Id: //depot/dev/client3/rdock/2013.1/src/exe/rbdock.cxx#4 $)

>  <Rbt.Library>
libRbt.so (2013.1, Build901 2013/11/27)

>  <Rbt.Parameter_File>
/export/apps/rDock/src/rDock_2013.1_src/data/scripts/dock_solv.prm

>  <Rbt.Receptor>
prm/pocket_docking_6.prm

>  <SCORE>
-32.481

>  <SCORE.INTER>
-32.4281

>  <SCORE.INTER.CONST>
1

>  <SCORE.INTER.POLAR>
-2.37586

>  <SCORE.INTER.ROT>
10

>  <SCORE.INTER.SOLV>
8.9821

>  <SCORE.INTER.VDW>
-26.9599

>  <SCORE.INTER.norm>
-1.08094

>  <SCORE.INTRA>
-0.052937

>  <SCORE.INTRA.DIHEDRAL>
-3.09419

>  <SCORE.INTRA.DIHEDRAL.0>
18.0451

>  <SCORE.INTRA.POLAR>
0.196815

>  <SCORE.INTRA.POLAR.0>
-0.196815

>  <SCORE.INTRA.REPUL>
0

>  <SCORE.INTRA.REPUL.0>
0

>  <SCORE.INTRA.SOLV>
-0.56908

>  <SCORE.INTRA.SOLV.lig_0>
-14.7906

>  <SCORE.INTRA.VDW>
1.10953

>  <SCORE.INTRA.VDW.0>
-0.411701

>  <SCORE.INTRA.norm>
-0.00176457

>  <SCORE.RESTR>
0

>  <SCORE.RESTR.CAVITY>
0

>  <SCORE.RESTR.norm>
0

>  <SCORE.SYSTEM>
0

>  <SCORE.SYSTEM.CONST>
0

>  <SCORE.SYSTEM.DIHEDRAL>
0

>  <SCORE.SYSTEM.SOLV>
0

>  <SCORE.SYSTEM.norm>
0

>  <SCORE.heavy>
30

>  <SCORE.norm>
-1.0827

>  <RMSD>
9.675

$$$$
1uts_lig
 OpenBabel11021811413D
libRbt.so/2013.1/901 2013/11/27
 30 33  0  0  0  0  0  0  0  0999 V2000
   -4.3288   -0.3827   16.2931 N   0  0  0  0  0  0  0  0  0  0  0  0
   -4.3709    2.0415   15.8951 C   0  0  0  0  0  0  0  0  0  0  0  0
   -2.3690    4.1720   13.4596 C   0  0  0  0  0  0  0  0  0  0  0  0
   -4.8288    3.3836   16.4733 C   0  0  0  0  0  0  0  0  0  0  0  0
   -4.2299    4.4530   15.7265 O   0  0  0  0  0  0  0  0  0  0  0  0
   -4.8729    0.9031   16.7851 C   0  0  0  0  0  0  0  0  0  0  0  0
   -2.0487    5.3607   12.6371 N   0  0  0  0  0  0  0  0  0  0  0  0
   -2.2093    5.0309   11.1962 C   0  0  0  0  0  0  0  0  0  0  0  0
   -1.5612    6.1226   10.3397 C   0  0  0  0  0  0  0  0  0  0  0  0
   -1.5877    5.7136    8.9174 N   0  0  0  0  0  0  0  0  0  0  0  0
   -3.0035    5.5510    8.4781 C   0  0  0  0  0  0  0  0  0  0  0  0
   -0.8432    4.4325    8.7577 C   0  0  0  0  0  0  0  0  0  0  0  0
   -3.0349    5.1223    7.0022 C   0  0  0  0  0  0  0  0  0  0  0  0
   -0.8772    4.0003    7.2807 C   0  0  0  0  0  0  0  0  0  0  0  0
   -2.2915    3.8405    6.8421 N   0  0  0  0  0  0  0  0  0  0  0  0
   -0.9499    4.7432   17.5674 C   0  0  0  0  0  0  0  0  0  0  0  0
    5.4365    4.7602   17.8494 N   0  0  0  0  0  0  0  0  0  0  0  0
   -0.0227    4.5943   16.5085 C   0  0  0  0  0  0  0  0  0  0  0  0
   -0.4893    4.4091   15.1798 C   0  0  0  0  0  0  0  0  0  0  0  0
   -1.8849    4.3758   14.9094 C   0  0  0  0  0  0  0  0  0  0  0  0
   -2.8181    4.5098   15.9809 C   0  0  0  0  0  0  0  0  0  0  0  0
   -2.3452    4.6981   17.3086 C   0  0  0  0  0  0  0  0  0  0  0  0
    5.2784    5.2485   19.1663 C   0  0  0  0  0  0  0  0  0  0  0  0
    3.9137    5.4634   19.4650 C   0  0  0  0  0  0  0  0  0  0  0  0
    1.8136    5.0817   18.0480 C   0  0  0  0  0  0  0  0  0  0  0  0
    1.3518    4.6268   16.7830 C   0  0  0  0  0  0  0  0  0  0  0  0
    2.2855    4.1984   15.7997 C   0  0  0  0  0  0  0  0  0  0  0  0
    3.6780    4.2230   16.0825 C   0  0  0  0  0  0  0  0  0  0  0  0
    4.1387    4.6681   17.3610 C   0  0  0  0  0  0  0  0  0  0  0  0
    3.2165    5.0928   18.3349 C   0  0  0  0  0  0  0  0  0  0  0  0
  1  6  1  0  0  0  0
  2  4  1  0  0  0  0
  3  7  1  0  0  0  0
  4  5  1  0  0  0  0
  6  2  1  0  0  0  0
  7  8  1  0  0  0  0
  8  9  1  0  0  0  0
  9 10  1  0  0  0  0
 10 11  1  0  0  0  0
 10 12  1  0  0  0  0
 11 13  1  0  0  0  0
 13 15  1  0  0  0  0
 14 12  1  0  0  0  0
 15 14  1  0  0  0  0
 16 18  2  0  0  0  0
 16 22  1  0  0  0  0
 17 23  1  0  0  0  0
 17 29  1  0  0  0  0
 18 19  1  0  0  0  0
 18 26  1  0  0  0  0
 19 20  2  0  0  0  0
 20  3  1  0  0  0  0
 20 21  1  0  0  0  0
 21  5  1  0  0  0  0
 21 22  2  0  0  0  0
 23 24  2  0  0  0  0
 24 30  1  0  0  0  0
 25 26  2  0  0  0  0
 25 30  1  0  0  0  0
 26 27  1  0  0  0  0
 27 28  2  0  0  0  0
 28 29  1  0  0  0  0
 29 30  2  0  0  0  0
M  END
>  <CHROM.1>
175.33868294,173.42034854,166.17693520,-69.64146665,-174.98308024,-166.23630801
173.57920451,61.50789741,-13.16859344,-68.75302984,121.08991999,-0.78838473
4.30302207,14.25797055,1.03108346,0.32812576,1.76140580

>  <Name>
1uts_lig

>  <RI>
0

>  <Rbt.Current_Directory>
/home/itssahil/PROJECTS/Mol_Feturizer/New_Systems/rnas/1uts

>  <Rbt.Executable>
rbdock ($Id: //depot/dev/client3/rdock/2013.1/src/exe/rbdock.cxx#4 $)

>  <Rbt.Library>
libRbt.so (2013.1, Build901 2013/11/27)

>  <Rbt.Parameter_File>
/export/apps/rDock/src/rDock_2013.1_src/data/scripts/dock_solv.prm

>  <Rbt.Receptor>
prm/pocket_docking_7.prm

>  <SCORE>
-33.1439

>  <SCORE.INTER>
-32.3771

>  <SCORE.INTER.CONST>
1

>  <SCORE.INTER.POLAR>
-2.01903

>  <SCORE.INTER.ROT>
10

>  <SCORE.INTER.SOLV>
7.20281

>  <SCORE.INTER.VDW>
-27.5222

>  <SCORE.INTER.norm>
-1.07924

>  <SCORE.INTRA>
-0.766788

>  <SCORE.INTRA.DIHEDRAL>
-11.7363

>  <SCORE.INTRA.DIHEDRAL.0>
18.0451

>  <SCORE.INTRA.POLAR>
0.196815

>  <SCORE.INTRA.POLAR.0>
-0.196815

>  <SCORE.INTRA.REPUL>
0

>  <SCORE.INTRA.REPUL.0>
0

>  <SCORE.INTRA.SOLV>
-0.642655

>  <SCORE.INTRA.SOLV.lig_0>
-14.7906

>  <SCORE.INTRA.VDW>
4.75354

>  <SCORE.INTRA.VDW.0>
-0.411701

>  <SCORE.INTRA.norm>
-0.0255596

>  <SCORE.RESTR>
0

>  <SCORE.RESTR.CAVITY>
0

>  <SCORE.RESTR.norm>
0

>  <SCORE.SYSTEM>
0

>  <SCORE.SYSTEM.CONST>
0

>  <SCORE.SYSTEM.DIHEDRAL>
0

>  <SCORE.SYSTEM.SOLV>
0

>  <SCORE.SYSTEM.norm>
0

>  <SCORE.heavy>
30

>  <SCORE.norm>
-1.1048

>  <RMSD>
9.710

$$$$
1uts_lig
 OpenBabel11021811413D
libRbt.so/2013.1/901 2013/11/27
 30 33  0  0  0  0  0  0  0  0999 V2000
   -3.2133    5.9174   19.4541 N   0  0  0  0  0  0  0  0  0  0  0  0
   -4.2320    4.6103   17.6401 C   0  0  0  0  0  0  0  0  0  0  0  0
   -5.5481    3.7047   14.8241 C   0  0  0  0  0  0  0  0  0  0  0  0
   -3.2572    3.4310   17.7051 C   0  0  0  0  0  0  0  0  0  0  0  0
   -3.5121    2.5414   16.6081 O   0  0  0  0  0  0  0  0  0  0  0  0
   -4.4329    5.1860   19.0431 C   0  0  0  0  0  0  0  0  0  0  0  0
   -6.0055    2.3270   15.1148 N   0  0  0  0  0  0  0  0  0  0  0  0
   -7.4410    2.3471   15.5022 C   0  0  0  0  0  0  0  0  0  0  0  0
   -8.2860    2.8596   14.3323 C   0  0  0  0  0  0  0  0  0  0  0  0
   -9.7165    2.5942   14.6044 N   0  0  0  0  0  0  0  0  0  0  0  0
  -10.0134    1.1601   14.3228 C   0  0  0  0  0  0  0  0  0  0  0  0
  -10.5551    3.4773   13.7454 C   0  0  0  0  0  0  0  0  0  0  0  0
  -11.4995    0.8815   14.6006 C   0  0  0  0  0  0  0  0  0  0  0  0
  -12.0434    3.1966   14.0201 C   0  0  0  0  0  0  0  0  0  0  0  0
  -12.3387    1.7637   13.7409 N   0  0  0  0  0  0  0  0  0  0  0  0
   -1.2842    3.7354   13.8076 C   0  0  0  0  0  0  0  0  0  0  0  0
   -0.5066    6.2845    7.9482 N   0  0  0  0  0  0  0  0  0  0  0  0
   -2.2326    4.2888   12.9146 C   0  0  0  0  0  0  0  0  0  0  0  0
   -3.6128    4.2752   13.2500 C   0  0  0  0  0  0  0  0  0  0  0  0
   -4.0446    3.7102   14.4813 C   0  0  0  0  0  0  0  0  0  0  0  0
   -3.0882    3.1380   15.3730 C   0  0  0  0  0  0  0  0  0  0  0  0
   -1.7077    3.1572   15.0334 C   0  0  0  0  0  0  0  0  0  0  0  0
   -0.2497    5.0359    7.3376 C   0  0  0  0  0  0  0  0  0  0  0  0
   -0.5135    3.9729    8.2310 C   0  0  0  0  0  0  0  0  0  0  0  0
   -1.3721    3.9939   10.6448 C   0  0  0  0  0  0  0  0  0  0  0  0
   -1.7995    4.8428   11.7017 C   0  0  0  0  0  0  0  0  0  0  0  0
   -1.7935    6.2538   11.5242 C   0  0  0  0  0  0  0  0  0  0  0  0
   -1.3630    6.8137   10.2911 C   0  0  0  0  0  0  0  0  0  0  0  0
   -0.9468    5.9565    9.2248 C   0  0  0  0  0  0  0  0  0  0  0  0
   -0.9515    4.5604    9.3988 C   0  0  0  0  0  0  0  0  0  0  0  0
  1  6  1  0  0  0  0
  2  4  1  0  0  0  0
  3  7  1  0  0  0  0
  4  5  1  0  0  0  0
  6  2  1  0  0  0  0
  7  8  1  0  0  0  0
  8  9  1  0  0  0  0
  9 10  1  0  0  0  0
 10 11  1  0  0  0  0
 10 12  1  0  0  0  0
 11 13  1  0  0  0  0
 13 15  1  0  0  0  0
 14 12  1  0  0  0  0
 15 14  1  0  0  0  0
 16 18  2  0  0  0  0
 16 22  1  0  0  0  0
 17 23  1  0  0  0  0
 17 29  1  0  0  0  0
 18 19  1  0  0  0  0
 18 26  1  0  0  0  0
 19 20  2  0  0  0  0
 20  3  1  0  0  0  0
 20 21  1  0  0  0  0
 21  5  1  0  0  0  0
 21 22  2  0  0  0  0
 23 24  2  0  0  0  0
 24 30  1  0  0  0  0
 25 26  2  0  0  0  0
 25 30  1  0  0  0  0
 26 27  1  0  0  0  0
 27 28  2  0  0  0  0
 28 29  1  0  0  0  0
 29 30  2  0  0  0  0
M  END
>  <CHROM.1>
68.61082912,154.14103403,177.48586579,71.27652880,72.52483080,62.81512065
167.35520876,-78.49229487,73.60559104,124.51267759,-102.28464333,-4.74714186
3.82994819,13.68762746,-2.63396211,-0.28735928,-1.54452991

>  <Name>
1uts_lig

>  <RI>
0

>  <Rbt.Current_Directory>
/home/itssahil/PROJECTS/Mol_Feturizer/New_Systems/rnas/1uts

>  <Rbt.Executable>
rbdock ($Id: //depot/dev/client3/rdock/2013.1/src/exe/rbdock.cxx#4 $)

>  <Rbt.Library>
libRbt.so (2013.1, Build901 2013/11/27)

>  <Rbt.Parameter_File>
/export/apps/rDock/src/rDock_2013.1_src/data/scripts/dock_solv.prm

>  <Rbt.Receptor>
prm/pocket_docking_7.prm

>  <SCORE>
-35.7471

>  <SCORE.INTER>
-33.4409

>  <SCORE.INTER.CONST>
1

>  <SCORE.INTER.POLAR>
-0.962609

>  <SCORE.INTER.ROT>
10

>  <SCORE.INTER.SOLV>
10.3082

>  <SCORE.INTER.VDW>
-32.788

>  <SCORE.INTER.norm>
-1.1147

>  <SCORE.INTRA>
-2.30615

>  <SCORE.INTRA.DIHEDRAL>
-3.36236

>  <SCORE.INTRA.DIHEDRAL.0>
18.0451

>  <SCORE.INTRA.POLAR>
-0.387978

>  <SCORE.INTRA.POLAR.0>
-0.196815

>  <SCORE.INTRA.REPUL>
0

>  <SCORE.INTRA.REPUL.0>
0

>  <SCORE.INTRA.SOLV>
-0.273938

>  <SCORE.INTRA.SOLV.lig_0>
-14.7906

>  <SCORE.INTRA.VDW>
0.831118

>  <SCORE.INTRA.VDW.0>
-0.411701

>  <SCORE.INTRA.norm>
-0.0768718

>  <SCORE.RESTR>
0

>  <SCORE.RESTR.CAVITY>
0

>  <SCORE.RESTR.norm>
0

>  <SCORE.SYSTEM>
0

>  <SCORE.SYSTEM.CONST>
0

>  <SCORE.SYSTEM.DIHEDRAL>
0

>  <SCORE.SYSTEM.SOLV>
0

>  <SCORE.SYSTEM.norm>
0

>  <SCORE.heavy>
30

>  <SCORE.norm>
-1.19157

>  <RMSD>
9.711

$$$$
1uts_lig
 OpenBabel11021811413D
libRbt.so/2013.1/901 2013/11/27
 30 33  0  0  0  0  0  0  0  0999 V2000
   -7.4140    3.5188   13.5334 N   0  0  0  0  0  0  0  0  0  0  0  0
   -5.2895    3.2126   14.7292 C   0  0  0  0  0  0  0  0  0  0  0  0
   -1.9231    4.3187   14.5548 C   0  0  0  0  0  0  0  0  0  0  0  0
   -5.4239    4.0419   16.0096 C   0  0  0  0  0  0  0  0  0  0  0  0
   -4.3559    4.9986   16.0715 O   0  0  0  0  0  0  0  0  0  0  0  0
   -6.6406    2.5846   14.3823 C   0  0  0  0  0  0  0  0  0  0  0  0
   -2.0383    3.0260   13.8422 N   0  0  0  0  0  0  0  0  0  0  0  0
   -1.2447    3.0743   12.5857 C   0  0  0  0  0  0  0  0  0  0  0  0
   -2.1412    3.5110   11.4234 C   0  0  0  0  0  0  0  0  0  0  0  0
   -1.7541    4.8714   10.9869 N   0  0  0  0  0  0  0  0  0  0  0  0
   -2.3094    5.8719   11.9431 C   0  0  0  0  0  0  0  0  0  0  0  0
   -2.2782    5.1176    9.6137 C   0  0  0  0  0  0  0  0  0  0  0  0
   -1.9126    7.2865   11.4908 C   0  0  0  0  0  0  0  0  0  0  0  0
   -1.8846    6.5352    9.1612 C   0  0  0  0  0  0  0  0  0  0  0  0
   -2.4376    7.5338   10.1179 N   0  0  0  0  0  0  0  0  0  0  0  0
   -2.2095    3.6871   18.8830 C   0  0  0  0  0  0  0  0  0  0  0  0
    3.3634    1.3133   21.0634 N   0  0  0  0  0  0  0  0  0  0  0  0
   -1.0290    3.3304   18.1884 C   0  0  0  0  0  0  0  0  0  0  0  0
   -0.9430    3.5373   16.7858 C   0  0  0  0  0  0  0  0  0  0  0  0
   -2.0378    4.1046   16.0776 C   0  0  0  0  0  0  0  0  0  0  0  0
   -3.2333    4.4485   16.7773 C   0  0  0  0  0  0  0  0  0  0  0  0
   -3.3125    4.2419   18.1818 C   0  0  0  0  0  0  0  0  0  0  0  0
    4.0827    2.5264   21.1577 C   0  0  0  0  0  0  0  0  0  0  0  0
    3.3960    3.5732   20.5018 C   0  0  0  0  0  0  0  0  0  0  0  0
    1.1496    3.5827   19.2699 C   0  0  0  0  0  0  0  0  0  0  0  0
    0.0457    2.7702   18.8932 C   0  0  0  0  0  0  0  0  0  0  0  0
    0.0304    1.3908   19.2384 C   0  0  0  0  0  0  0  0  0  0  0  0
    1.1162    0.8263   19.9609 C   0  0  0  0  0  0  0  0  0  0  0  0
    2.2188    1.6493   20.3506 C   0  0  0  0  0  0  0  0  0  0  0  0
    2.2360    3.0141   20.0094 C   0  0  0  0  0  0  0  0  0  0  0  0
  1  6  1  0  0  0  0
  2  4  1  0  0  0  0
  3  7  1  0  0  0  0
  4  5  1  0  0  0  0
  6  2  1  0  0  0  0
  7  8  1  0  0  0  0
  8  9  1  0  0  0  0
  9 10  1  0  0  0  0
 10 11  1  0  0  0  0
 10 12  1  0  0  0  0
 11 13  1  0  0  0  0
 13 15  1  0  0  0  0
 14 12  1  0  0  0  0
 15 14  1  0  0  0  0
 16 18  2  0  0  0  0
 16 22  1  0  0  0  0
 17 23  1  0  0  0  0
 17 29  1  0  0  0  0
 18 19  1  0  0  0  0
 18 26  1  0  0  0  0
 19 20  2  0  0  0  0
 20  3  1  0  0  0  0
 20 21  1  0  0  0  0
 21  5  1  0  0  0  0
 21 22  2  0  0  0  0
 23 24  2  0  0  0  0
 24 30  1  0  0  0  0
 25 26  2  0  0  0  0
 25 30  1  0  0  0  0
 26 27  1  0  0  0  0
 27 28  2  0  0  0  0
 28 29  1  0  0  0  0
 29 30  2  0  0  0  0
M  END
>  <CHROM.1>
174.65897924,-158.94966770,-149.61359927,-91.26843839,88.75506066,-93.09878328
110.17370485,-77.86230378,-99.69052296,74.43185286,109.17151747,-1.59913891
3.83134668,15.66581021,2.10026374,-0.09082450,-1.19739516

>  <Name>
1uts_lig

>  <RI>
0

>  <Rbt.Current_Directory>
/home/itssahil/PROJECTS/Mol_Feturizer/New_Systems/rnas/1uts

>  <Rbt.Executable>
rbdock ($Id: //depot/dev/client3/rdock/2013.1/src/exe/rbdock.cxx#4 $)

>  <Rbt.Library>
libRbt.so (2013.1, Build901 2013/11/27)

>  <Rbt.Parameter_File>
/export/apps/rDock/src/rDock_2013.1_src/data/scripts/dock_solv.prm

>  <Rbt.Receptor>
prm/pocket_docking_4.prm

>  <SCORE>
-19.2008

>  <SCORE.INTER>
-24.4301

>  <SCORE.INTER.CONST>
1

>  <SCORE.INTER.POLAR>
-1.96424

>  <SCORE.INTER.ROT>
10

>  <SCORE.INTER.SOLV>
10.1953

>  <SCORE.INTER.VDW>
-23.4044

>  <SCORE.INTER.norm>
-0.814338

>  <SCORE.INTRA>
4.88187

>  <SCORE.INTRA.DIHEDRAL>
9.47327

>  <SCORE.INTRA.DIHEDRAL.0>
18.0451

>  <SCORE.INTRA.POLAR>
0.196815

>  <SCORE.INTRA.POLAR.0>
-0.196815

>  <SCORE.INTRA.REPUL>
0

>  <SCORE.INTRA.REPUL.0>
0

>  <SCORE.INTRA.SOLV>
-0.322887

>  <SCORE.INTRA.SOLV.lig_0>
-14.7906

>  <SCORE.INTRA.VDW>
-0.36249

>  <SCORE.INTRA.VDW.0>
-0.411701

>  <SCORE.INTRA.norm>
0.162729

>  <SCORE.RESTR>
0.347481

>  <SCORE.RESTR.CAVITY>
0.347481

>  <SCORE.RESTR.norm>
0.0115827

>  <SCORE.SYSTEM>
0

>  <SCORE.SYSTEM.CONST>
0

>  <SCORE.SYSTEM.DIHEDRAL>
0

>  <SCORE.SYSTEM.SOLV>
0

>  <SCORE.SYSTEM.norm>
0

>  <SCORE.heavy>
30

>  <SCORE.norm>
-0.640026

>  <RMSD>
9.714

$$$$
1uts_lig
 OpenBabel11021811413D
libRbt.so/2013.1/901 2013/11/27
 30 33  0  0  0  0  0  0  0  0999 V2000
   -3.4525   -0.5811   16.2841 N   0  0  0  0  0  0  0  0  0  0  0  0
   -3.5441    1.8489   15.9321 C   0  0  0  0  0  0  0  0  0  0  0  0
   -0.8987    4.0473   14.7373 C   0  0  0  0  0  0  0  0  0  0  0  0
   -4.4774    3.0629   15.9105 C   0  0  0  0  0  0  0  0  0  0  0  0
   -3.7581    4.2080   15.4295 O   0  0  0  0  0  0  0  0  0  0  0  0
   -4.3250    0.6112   16.3775 C   0  0  0  0  0  0  0  0  0  0  0  0
   -1.6299    4.7140   13.6359 N   0  0  0  0  0  0  0  0  0  0  0  0
   -2.1454    3.6923   12.6865 C   0  0  0  0  0  0  0  0  0  0  0  0
   -3.0965    4.3512   11.6830 C   0  0  0  0  0  0  0  0  0  0  0  0
   -2.3333    5.2757   10.8149 N   0  0  0  0  0  0  0  0  0  0  0  0
   -2.2588    6.6148   11.4669 C   0  0  0  0  0  0  0  0  0  0  0  0
   -3.0076    5.3791    9.4899 C   0  0  0  0  0  0  0  0  0  0  0  0
   -1.4700    7.5789   10.5661 C   0  0  0  0  0  0  0  0  0  0  0  0
   -2.2206    6.3473    8.5882 C   0  0  0  0  0  0  0  0  0  0  0  0
   -2.1446    7.6838    9.2412 N   0  0  0  0  0  0  0  0  0  0  0  0
   -2.2621    5.5251   18.6324 C   0  0  0  0  0  0  0  0  0  0  0  0
    2.9568    7.1822   22.0750 N   0  0  0  0  0  0  0  0  0  0  0  0
   -0.8783    5.4468   18.3457 C   0  0  0  0  0  0  0  0  0  0  0  0
   -0.4433    4.9665   17.0817 C   0  0  0  0  0  0  0  0  0  0  0  0
   -1.3935    4.5671   16.1022 C   0  0  0  0  0  0  0  0  0  0  0  0
   -2.7880    4.6315   16.3993 C   0  0  0  0  0  0  0  0  0  0  0  0
   -3.2177    5.1160   17.6652 C   0  0  0  0  0  0  0  0  0  0  0  0
    3.7906    7.8675   21.1624 C   0  0  0  0  0  0  0  0  0  0  0  0
    3.2914    7.7617   19.8443 C   0  0  0  0  0  0  0  0  0  0  0  0
    1.1948    6.5989   18.9409 C   0  0  0  0  0  0  0  0  0  0  0  0
    0.0527    5.8410   19.3170 C   0  0  0  0  0  0  0  0  0  0  0  0
   -0.1473    5.4896   20.6804 C   0  0  0  0  0  0  0  0  0  0  0  0
    0.7923    5.8977   21.6653 C   0  0  0  0  0  0  0  0  0  0  0  0
    1.9331    6.6720   21.2857 C   0  0  0  0  0  0  0  0  0  0  0  0
    2.1329    7.0201   19.9373 C   0  0  0  0  0  0  0  0  0  0  0  0
  1  6  1  0  0  0  0
  2  4  1  0  0  0  0
  3  7  1  0  0  0  0
  4  5  1  0  0  0  0
  6  2  1  0  0  0  0
  7  8  1  0  0  0  0
  8  9  1  0  0  0  0
  9 10  1  0  0  0  0
 10 11  1  0  0  0  0
 10 12  1  0  0  0  0
 11 13  1  0  0  0  0
 13 15  1  0  0  0  0
 14 12  1  0  0  0  0
 15 14  1  0  0  0  0
 16 18  2  0  0  0  0
 16 22  1  0  0  0  0
 17 23  1  0  0  0  0
 17 29  1  0  0  0  0
 18 19  1  0  0  0  0
 18 26  1  0  0  0  0
 19 20  2  0  0  0  0
 20  3  1  0  0  0  0
 20 21  1  0  0  0  0
 21  5  1  0  0  0  0
 21 22  2  0  0  0  0
 23 24  2  0  0  0  0
 24 30  1  0  0  0  0
 25 26  2  0  0  0  0
 25 30  1  0  0  0  0
 26 27  1  0  0  0  0
 27 28  2  0  0  0  0
 28 29  1  0  0  0  0
 29 30  2  0  0  0  0
M  END
>  <CHROM.1>
60.78240279,-177.19069576,-130.07486206,-69.98274066,175.09315247,170.47278170
67.05938112,-87.35477662,-138.36256442,-131.86321114,115.44415391,-1.27832935
5.11679937,15.88200138,2.23660416,-0.85021817,-1.17860887

>  <Name>
1uts_lig

>  <RI>
0

>  <Rbt.Current_Directory>
/home/itssahil/PROJECTS/Mol_Feturizer/New_Systems/rnas/1uts

>  <Rbt.Executable>
rbdock ($Id: //depot/dev/client3/rdock/2013.1/src/exe/rbdock.cxx#4 $)

>  <Rbt.Library>
libRbt.so (2013.1, Build901 2013/11/27)

>  <Rbt.Parameter_File>
/export/apps/rDock/src/rDock_2013.1_src/data/scripts/dock_solv.prm

>  <Rbt.Receptor>
prm/pocket_docking_5.prm

>  <SCORE>
-33.5845

>  <SCORE.INTER>
-31.4033

>  <SCORE.INTER.CONST>
1

>  <SCORE.INTER.POLAR>
-1.92655

>  <SCORE.INTER.ROT>
10

>  <SCORE.INTER.SOLV>
8.15536

>  <SCORE.INTER.VDW>
-27.4988

>  <SCORE.INTER.norm>
-1.04678

>  <SCORE.INTRA>
-2.74963

>  <SCORE.INTRA.DIHEDRAL>
-5.33792

>  <SCORE.INTRA.DIHEDRAL.0>
18.0451

>  <SCORE.INTRA.POLAR>
-0.102747

>  <SCORE.INTRA.POLAR.0>
-0.196815

>  <SCORE.INTRA.REPUL>
0

>  <SCORE.INTRA.REPUL.0>
0

>  <SCORE.INTRA.SOLV>
-0.0277881

>  <SCORE.INTRA.SOLV.lig_0>
-14.7906

>  <SCORE.INTRA.VDW>
0.282565

>  <SCORE.INTRA.VDW.0>
-0.411701

>  <SCORE.INTRA.norm>
-0.0916543

>  <SCORE.RESTR>
0.568422

>  <SCORE.RESTR.CAVITY>
0.568422

>  <SCORE.RESTR.norm>
0.0189474

>  <SCORE.SYSTEM>
0

>  <SCORE.SYSTEM.CONST>
0

>  <SCORE.SYSTEM.DIHEDRAL>
0

>  <SCORE.SYSTEM.SOLV>
0

>  <SCORE.SYSTEM.norm>
0

>  <SCORE.heavy>
30

>  <SCORE.norm>
-1.11948

>  <RMSD>
9.739

$$$$
1uts_lig
 OpenBabel11021811413D
libRbt.so/2013.1/901 2013/11/27
 30 33  0  0  0  0  0  0  0  0999 V2000
   -5.4743    4.1240   15.2024 N   0  0  0  0  0  0  0  0  0  0  0  0
   -5.1510    2.6990   17.1778 C   0  0  0  0  0  0  0  0  0  0  0  0
   -1.9765    3.5373   14.3361 C   0  0  0  0  0  0  0  0  0  0  0  0
   -3.7085    3.1653   17.3943 C   0  0  0  0  0  0  0  0  0  0  0  0
   -2.8069    2.2028   16.8282 O   0  0  0  0  0  0  0  0  0  0  0  0
   -5.4779    2.7240   15.6835 C   0  0  0  0  0  0  0  0  0  0  0  0
   -1.1868    3.7486   13.1017 N   0  0  0  0  0  0  0  0  0  0  0  0
   -2.1010    4.0427   11.9664 C   0  0  0  0  0  0  0  0  0  0  0  0
   -1.3144    4.6887   10.8221 C   0  0  0  0  0  0  0  0  0  0  0  0
   -2.2118    5.5731   10.0453 N   0  0  0  0  0  0  0  0  0  0  0  0
   -1.4814    6.0905    8.8525 C   0  0  0  0  0  0  0  0  0  0  0  0
   -2.6625    6.7011   10.9087 C   0  0  0  0  0  0  0  0  0  0  0  0
   -2.4092    7.0128    8.0452 C   0  0  0  0  0  0  0  0  0  0  0  0
   -3.5887    7.6273   10.1002 C   0  0  0  0  0  0  0  0  0  0  0  0
   -2.8594    8.1417    8.9078 N   0  0  0  0  0  0  0  0  0  0  0  0
    0.7158    3.1648   17.7752 C   0  0  0  0  0  0  0  0  0  0  0  0
    6.3522    5.8978   16.0868 N   0  0  0  0  0  0  0  0  0  0  0  0
    1.1595    3.7975   16.5894 C   0  0  0  0  0  0  0  0  0  0  0  0
    0.2821    3.9145   15.4785 C   0  0  0  0  0  0  0  0  0  0  0  0
   -1.0416    3.4008   15.5548 C   0  0  0  0  0  0  0  0  0  0  0  0
   -1.4816    2.7487   16.7457 C   0  0  0  0  0  0  0  0  0  0  0  0
   -0.5999    2.6373   17.8556 C   0  0  0  0  0  0  0  0  0  0  0  0
    6.3004    6.1621   14.6993 C   0  0  0  0  0  0  0  0  0  0  0  0
    5.0564    5.7686   14.1561 C   0  0  0  0  0  0  0  0  0  0  0  0
    2.9963    4.7366   15.2763 C   0  0  0  0  0  0  0  0  0  0  0  0
    2.4665    4.3003   16.5211 C   0  0  0  0  0  0  0  0  0  0  0  0
    3.2616    4.3812   17.6973 C   0  0  0  0  0  0  0  0  0  0  0  0
    4.5830    4.8996   17.6283 C   0  0  0  0  0  0  0  0  0  0  0  0
    5.1082    5.3506   16.3770 C   0  0  0  0  0  0  0  0  0  0  0  0
    4.3232    5.2708   15.2122 C   0  0  0  0  0  0  0  0  0  0  0  0
  1  6  1  0  0  0  0
  2  4  1  0  0  0  0
  3  7  1  0  0  0  0
  4  5  1  0  0  0  0
  6  2  1  0  0  0  0
  7  8  1  0  0  0  0
  8  9  1  0  0  0  0
  9 10  1  0  0  0  0
 10 11  1  0  0  0  0
 10 12  1  0  0  0  0
 11 13  1  0  0  0  0
 13 15  1  0  0  0  0
 14 12  1  0  0  0  0
 15 14  1  0  0  0  0
 16 18  2  0  0  0  0
 16 22  1  0  0  0  0
 17 23  1  0  0  0  0
 17 29  1  0  0  0  0
 18 19  1  0  0  0  0
 18 26  1  0  0  0  0
 19 20  2  0  0  0  0
 20  3  1  0  0  0  0
 20 21  1  0  0  0  0
 21  5  1  0  0  0  0
 21 22  2  0  0  0  0
 23 24  2  0  0  0  0
 24 30  1  0  0  0  0
 25 26  2  0  0  0  0
 25 30  1  0  0  0  0
 26 27  1  0  0  0  0
 27 28  2  0  0  0  0
 28 29  1  0  0  0  0
 29 30  2  0  0  0  0
M  END
>  <CHROM.1>
-50.53020064,-66.74558281,-173.15632827,166.99851508,-66.42839499,162.10264717
-151.38303560,-174.25692359,169.64974050,20.89622391,-92.86199497,-0.33477973
4.64126044,14.32276814,2.56114288,-0.21017961,-1.11422157

>  <Name>
1uts_lig

>  <RI>
0

>  <Rbt.Current_Directory>
/home/itssahil/PROJECTS/Mol_Feturizer/New_Systems/rnas/1uts

>  <Rbt.Executable>
rbdock ($Id: //depot/dev/client3/rdock/2013.1/src/exe/rbdock.cxx#4 $)

>  <Rbt.Library>
libRbt.so (2013.1, Build901 2013/11/27)

>  <Rbt.Parameter_File>
/export/apps/rDock/src/rDock_2013.1_src/data/scripts/dock_solv.prm

>  <Rbt.Receptor>
prm/pocket_docking_6.prm

>  <SCORE>
-38.1942

>  <SCORE.INTER>
-37.0867

>  <SCORE.INTER.CONST>
1

>  <SCORE.INTER.POLAR>
-2.6051

>  <SCORE.INTER.ROT>
10

>  <SCORE.INTER.SOLV>
9.58351

>  <SCORE.INTER.VDW>
-29.5019

>  <SCORE.INTER.norm>
-1.23622

>  <SCORE.INTRA>
-1.14934

>  <SCORE.INTRA.DIHEDRAL>
-7.58818

>  <SCORE.INTRA.DIHEDRAL.0>
18.0451

>  <SCORE.INTRA.POLAR>
0.196815

>  <SCORE.INTRA.POLAR.0>
-0.196815

>  <SCORE.INTRA.REPUL>
0

>  <SCORE.INTRA.REPUL.0>
0

>  <SCORE.INTRA.SOLV>
-0.211883

>  <SCORE.INTRA.SOLV.lig_0>
-14.7906

>  <SCORE.INTRA.VDW>
2.08152

>  <SCORE.INTRA.VDW.0>
-0.411701

>  <SCORE.INTRA.norm>
-0.0383112

>  <SCORE.RESTR>
0.0417401

>  <SCORE.RESTR.CAVITY>
0.0417401

>  <SCORE.RESTR.norm>
0.00139134

>  <SCORE.SYSTEM>
0

>  <SCORE.SYSTEM.CONST>
0

>  <SCORE.SYSTEM.DIHEDRAL>
0

>  <SCORE.SYSTEM.SOLV>
0

>  <SCORE.SYSTEM.norm>
0

>  <SCORE.heavy>
30

>  <SCORE.norm>
-1.27314

>  <RMSD>
9.758

$$$$
1uts_lig
 OpenBabel11021811413D
libRbt.so/2013.1/901 2013/11/27
 30 33  0  0  0  0  0  0  0  0999 V2000
   -6.8546    3.0887   13.5917 N   0  0  0  0  0  0  0  0  0  0  0  0
   -5.0954    2.9389   15.3005 C   0  0  0  0  0  0  0  0  0  0  0  0
   -2.4266    3.2628   13.5796 C   0  0  0  0  0  0  0  0  0  0  0  0
   -4.3633    3.7170   16.3978 C   0  0  0  0  0  0  0  0  0  0  0  0
   -3.6144    4.7874   15.8035 O   0  0  0  0  0  0  0  0  0  0  0  0
   -6.2064    3.8095   14.7105 C   0  0  0  0  0  0  0  0  0  0  0  0
   -3.2497    4.3658   13.0337 N   0  0  0  0  0  0  0  0  0  0  0  0
   -2.6232    4.8908   11.7916 C   0  0  0  0  0  0  0  0  0  0  0  0
   -3.2571    4.2210   10.5689 C   0  0  0  0  0  0  0  0  0  0  0  0
   -2.5333    4.6393    9.3474 N   0  0  0  0  0  0  0  0  0  0  0  0
   -3.2887    4.1811    8.1461 C   0  0  0  0  0  0  0  0  0  0  0  0
   -1.1648    4.0494    9.3575 C   0  0  0  0  0  0  0  0  0  0  0  0
   -2.5378    4.6105    6.8753 C   0  0  0  0  0  0  0  0  0  0  0  0
   -0.4132    4.4757    8.0836 C   0  0  0  0  0  0  0  0  0  0  0  0
   -1.1695    4.0198    6.8842 N   0  0  0  0  0  0  0  0  0  0  0  0
   -0.0346    4.6407   16.9847 C   0  0  0  0  0  0  0  0  0  0  0  0
    6.1079    2.9423   16.1907 N   0  0  0  0  0  0  0  0  0  0  0  0
    0.5709    3.8953   15.9450 C   0  0  0  0  0  0  0  0  0  0  0  0
   -0.2101    3.4515   14.8447 C   0  0  0  0  0  0  0  0  0  0  0  0
   -1.5976    3.7562   14.7827 C   0  0  0  0  0  0  0  0  0  0  0  0
   -2.2095    4.4940   15.8402 C   0  0  0  0  0  0  0  0  0  0  0  0
   -1.4221    4.9383   16.9376 C   0  0  0  0  0  0  0  0  0  0  0  0
    6.5247    4.2165   15.7432 C   0  0  0  0  0  0  0  0  0  0  0  0
    5.4125    5.0379   15.4502 C   0  0  0  0  0  0  0  0  0  0  0  0
    2.8995    4.5759   15.6386 C   0  0  0  0  0  0  0  0  0  0  0  0
    1.9391    3.5974   16.0138 C   0  0  0  0  0  0  0  0  0  0  0  0
    2.3687    2.3192   16.4653 C   0  0  0  0  0  0  0  0  0  0  0  0
    3.7561    2.0217   16.5434 C   0  0  0  0  0  0  0  0  0  0  0  0
    4.7201    3.0130   16.1784 C   0  0  0  0  0  0  0  0  0  0  0  0
    4.2970    4.2779   15.7309 C   0  0  0  0  0  0  0  0  0  0  0  0
  1  6  1  0  0  0  0
  2  4  1  0  0  0  0
  3  7  1  0  0  0  0
  4  5  1  0  0  0  0
  6  2  1  0  0  0  0
  7  8  1  0  0  0  0
  8  9  1  0  0  0  0
  9 10  1  0  0  0  0
 10 11  1  0  0  0  0
 10 12  1  0  0  0  0
 11 13  1  0  0  0  0
 13 15  1  0  0  0  0
 14 12  1  0  0  0  0
 15 14  1  0  0  0  0
 16 18  2  0  0  0  0
 16 22  1  0  0  0  0
 17 23  1  0  0  0  0
 17 29  1  0  0  0  0
 18 19  1  0  0  0  0
 18 26  1  0  0  0  0
 19 20  2  0  0  0  0
 20  3  1  0  0  0  0
 20 21  1  0  0  0  0
 21  5  1  0  0  0  0
 21 22  2  0  0  0  0
 23 24  2  0  0  0  0
 24 30  1  0  0  0  0
 25 26  2  0  0  0  0
 25 30  1  0  0  0  0
 26 27  1  0  0  0  0
 27 28  2  0  0  0  0
 28 29  1  0  0  0  0
 29 30  2  0  0  0  0
M  END
>  <CHROM.1>
-62.09922560,-69.17207076,102.76424946,-107.56612370,176.35009813,95.48839863
-174.03192922,-170.27874443,-80.34054644,-132.07711515,87.79847266,-0.70046447
3.94316009,13.61965221,2.51219031,0.00707690,-1.49950547

>  <Name>
1uts_lig

>  <RI>
0

>  <Rbt.Current_Directory>
/home/itssahil/PROJECTS/Mol_Feturizer/New_Systems/rnas/1uts

>  <Rbt.Executable>
rbdock ($Id: //depot/dev/client3/rdock/2013.1/src/exe/rbdock.cxx#4 $)

>  <Rbt.Library>
libRbt.so (2013.1, Build901 2013/11/27)

>  <Rbt.Parameter_File>
/export/apps/rDock/src/rDock_2013.1_src/data/scripts/dock_solv.prm

>  <Rbt.Receptor>
prm/pocket_docking_6.prm

>  <SCORE>
-32.0662

>  <SCORE.INTER>
-32.9891

>  <SCORE.INTER.CONST>
1

>  <SCORE.INTER.POLAR>
-0.80164

>  <SCORE.INTER.ROT>
10

>  <SCORE.INTER.SOLV>
10.7008

>  <SCORE.INTER.VDW>
-33.1542

>  <SCORE.INTER.norm>
-1.09964

>  <SCORE.INTRA>
0.882411

>  <SCORE.INTRA.DIHEDRAL>
4.54598

>  <SCORE.INTRA.DIHEDRAL.0>
18.0451

>  <SCORE.INTRA.POLAR>
-0.242183

>  <SCORE.INTRA.POLAR.0>
-0.196815

>  <SCORE.INTRA.REPUL>
0.0163884

>  <SCORE.INTRA.REPUL.0>
0

>  <SCORE.INTRA.SOLV>
0.0501628

>  <SCORE.INTRA.SOLV.lig_0>
-14.7906

>  <SCORE.INTRA.VDW>
-0.674178

>  <SCORE.INTRA.VDW.0>
-0.411701

>  <SCORE.INTRA.norm>
0.0294137

>  <SCORE.RESTR>
0.0404514

>  <SCORE.RESTR.CAVITY>
0.0404514

>  <SCORE.RESTR.norm>
0.00134838

>  <SCORE.SYSTEM>
0

>  <SCORE.SYSTEM.CONST>
0

>  <SCORE.SYSTEM.DIHEDRAL>
0

>  <SCORE.SYSTEM.SOLV>
0

>  <SCORE.SYSTEM.norm>
0

>  <SCORE.heavy>
30

>  <SCORE.norm>
-1.06887

>  <RMSD>
9.774

$$$$
1uts_lig
 OpenBabel11021811413D
libRbt.so/2013.1/901 2013/11/27
 30 33  0  0  0  0  0  0  0  0999 V2000
   -7.1678    0.3800   15.3312 N   0  0  0  0  0  0  0  0  0  0  0  0
   -4.8988   -0.0248   16.1826 C   0  0  0  0  0  0  0  0  0  0  0  0
   -2.2131    3.5974   14.1322 C   0  0  0  0  0  0  0  0  0  0  0  0
   -3.5267    0.6152   16.4130 C   0  0  0  0  0  0  0  0  0  0  0  0
   -2.9271    0.9248   15.1463 O   0  0  0  0  0  0  0  0  0  0  0  0
   -5.8480    1.0066   15.5699 C   0  0  0  0  0  0  0  0  0  0  0  0
   -1.5818    4.2442   12.9595 N   0  0  0  0  0  0  0  0  0  0  0  0
   -2.5973    5.0383   12.2184 C   0  0  0  0  0  0  0  0  0  0  0  0
   -1.8982    6.0502   11.3059 C   0  0  0  0  0  0  0  0  0  0  0  0
   -1.9109    5.5487    9.9133 N   0  0  0  0  0  0  0  0  0  0  0  0
   -1.1384    4.2751    9.8415 C   0  0  0  0  0  0  0  0  0  0  0  0
   -1.3094    6.5732    9.0136 C   0  0  0  0  0  0  0  0  0  0  0  0
   -1.1461    3.7532    8.3956 C   0  0  0  0  0  0  0  0  0  0  0  0
   -1.3132    6.0501    7.5659 C   0  0  0  0  0  0  0  0  0  0  0  0
   -0.5435    4.7769    7.4955 N   0  0  0  0  0  0  0  0  0  0  0  0
    0.7020    1.0359   16.1707 C   0  0  0  0  0  0  0  0  0  0  0  0
    6.3234    4.2682   16.3067 N   0  0  0  0  0  0  0  0  0  0  0  0
    1.0899    2.3064   15.6823 C   0  0  0  0  0  0  0  0  0  0  0  0
    0.1404    3.1313   15.0223 C   0  0  0  0  0  0  0  0  0  0  0  0
   -1.1994    2.6862   14.8533 C   0  0  0  0  0  0  0  0  0  0  0  0
   -1.5844    1.3979   15.3321 C   0  0  0  0  0  0  0  0  0  0  0  0
   -0.6304    0.5778   15.9948 C   0  0  0  0  0  0  0  0  0  0  0  0
    6.0993    5.5460   15.7458 C   0  0  0  0  0  0  0  0  0  0  0  0
    4.7612    5.6791   15.3106 C   0  0  0  0  0  0  0  0  0  0  0  0
    2.7977    4.0370   15.4214 C   0  0  0  0  0  0  0  0  0  0  0  0
    2.4131    2.7379   15.8513 C   0  0  0  0  0  0  0  0  0  0  0  0
    3.3706    1.8800   16.4591 C   0  0  0  0  0  0  0  0  0  0  0  0
    4.7093    2.3220   16.6382 C   0  0  0  0  0  0  0  0  0  0  0  0
    5.0898    3.6346   16.2173 C   0  0  0  0  0  0  0  0  0  0  0  0
    4.1440    4.4846   15.6153 C   0  0  0  0  0  0  0  0  0  0  0  0
  1  6  1  0  0  0  0
  2  4  1  0  0  0  0
  3  7  1  0  0  0  0
  4  5  1  0  0  0  0
  6  2  1  0  0  0  0
  7  8  1  0  0  0  0
  8  9  1  0  0  0  0
  9 10  1  0  0  0  0
 10 11  1  0  0  0  0
 10 12  1  0  0  0  0
 11 13  1  0  0  0  0
 13 15  1  0  0  0  0
 14 12  1  0  0  0  0
 15 14  1  0  0  0  0
 16 18  2  0  0  0  0
 16 22  1  0  0  0  0
 17 23  1  0  0  0  0
 17 29  1  0  0  0  0
 18 19  1  0  0  0  0
 18 26  1  0  0  0  0
 19 20  2  0  0  0  0
 20  3  1  0  0  0  0
 20 21  1  0  0  0  0
 21  5  1  0  0  0  0
 21 22  2  0  0  0  0
 23 24  2  0  0  0  0
 24 30  1  0  0  0  0
 25 26  2  0  0  0  0
 25 30  1  0  0  0  0
 26 27  1  0  0  0  0
 27 28  2  0  0  0  0
 28 29  1  0  0  0  0
 29 30  2  0  0  0  0
M  END
>  <CHROM.1>
-178.51067979,-66.77583773,175.82055806,-174.05536205,179.22665932,161.70847491
101.78895068,-62.64419484,-177.02146892,41.18127361,-121.91350126,-0.22712296
3.28571152,13.82424459,2.79569605,-0.30361557,-1.04922531

>  <Name>
1uts_lig

>  <RI>
0

>  <Rbt.Current_Directory>
/home/itssahil/PROJECTS/Mol_Feturizer/New_Systems/rnas/1uts

>  <Rbt.Executable>
rbdock ($Id: //depot/dev/client3/rdock/2013.1/src/exe/rbdock.cxx#4 $)

>  <Rbt.Library>
libRbt.so (2013.1, Build901 2013/11/27)

>  <Rbt.Parameter_File>
/export/apps/rDock/src/rDock_2013.1_src/data/scripts/dock_solv.prm

>  <Rbt.Receptor>
prm/pocket_docking_6.prm

>  <SCORE>
-30.9554

>  <SCORE.INTER>
-30.1083

>  <SCORE.INTER.CONST>
1

>  <SCORE.INTER.POLAR>
-1.52479

>  <SCORE.INTER.ROT>
10

>  <SCORE.INTER.SOLV>
8.474

>  <SCORE.INTER.VDW>
-28.0809

>  <SCORE.INTER.norm>
-1.00361

>  <SCORE.INTRA>
-0.847116

>  <SCORE.INTRA.DIHEDRAL>
-8.32659

>  <SCORE.INTRA.DIHEDRAL.0>
18.0451

>  <SCORE.INTRA.POLAR>
0.196815

>  <SCORE.INTRA.POLAR.0>
-0.196815

>  <SCORE.INTRA.REPUL>
0

>  <SCORE.INTRA.REPUL.0>
0

>  <SCORE.INTRA.SOLV>
-0.45165

>  <SCORE.INTRA.SOLV.lig_0>
-14.7906

>  <SCORE.INTRA.VDW>
2.87283

>  <SCORE.INTRA.VDW.0>
-0.411701

>  <SCORE.INTRA.norm>
-0.0282372

>  <SCORE.RESTR>
0

>  <SCORE.RESTR.CAVITY>
0

>  <SCORE.RESTR.norm>
0

>  <SCORE.SYSTEM>
0

>  <SCORE.SYSTEM.CONST>
0

>  <SCORE.SYSTEM.DIHEDRAL>
0

>  <SCORE.SYSTEM.SOLV>
0

>  <SCORE.SYSTEM.norm>
0

>  <SCORE.heavy>
30

>  <SCORE.norm>
-1.03185

>  <RMSD>
9.774

$$$$
1uts_lig
 OpenBabel11021811413D
libRbt.so/2013.1/901 2013/11/27
 30 33  0  0  0  0  0  0  0  0999 V2000
   -7.7980    4.0279   16.1459 N   0  0  0  0  0  0  0  0  0  0  0  0
   -5.4044    3.9992   15.5920 C   0  0  0  0  0  0  0  0  0  0  0  0
   -1.8732    2.5449   13.6932 C   0  0  0  0  0  0  0  0  0  0  0  0
   -3.9940    4.0559   16.1859 C   0  0  0  0  0  0  0  0  0  0  0  0
   -3.1135    4.7098   15.2602 O   0  0  0  0  0  0  0  0  0  0  0  0
   -6.4352    3.9839   16.7222 C   0  0  0  0  0  0  0  0  0  0  0  0
   -2.4816    3.4938   12.7332 N   0  0  0  0  0  0  0  0  0  0  0  0
   -1.5782    3.6737   11.5660 C   0  0  0  0  0  0  0  0  0  0  0  0
   -1.9446    4.9607   10.8211 C   0  0  0  0  0  0  0  0  0  0  0  0
   -1.2267    5.0025    9.5273 N   0  0  0  0  0  0  0  0  0  0  0  0
   -1.2585    6.3937    8.9913 C   0  0  0  0  0  0  0  0  0  0  0  0
   -1.8762    4.0617    8.5712 C   0  0  0  0  0  0  0  0  0  0  0  0
   -0.5171    6.4402    7.6455 C   0  0  0  0  0  0  0  0  0  0  0  0
   -1.1368    4.1102    7.2220 C   0  0  0  0  0  0  0  0  0  0  0  0
   -1.1669    5.5004    6.6884 N   0  0  0  0  0  0  0  0  0  0  0  0
    0.3188    4.6891   16.8256 C   0  0  0  0  0  0  0  0  0  0  0  0
    6.2096    2.0146   17.2327 N   0  0  0  0  0  0  0  0  0  0  0  0
    0.9455    3.6426   16.1076 C   0  0  0  0  0  0  0  0  0  0  0  0
    0.2293    2.9516   15.0942 C   0  0  0  0  0  0  0  0  0  0  0  0
   -1.1142    3.3097   14.7963 C   0  0  0  0  0  0  0  0  0  0  0  0
   -1.7495    4.3543   15.5327 C   0  0  0  0  0  0  0  0  0  0  0  0
   -1.0266    5.0446   16.5439 C   0  0  0  0  0  0  0  0  0  0  0  0
    5.9970    0.6245   17.0905 C   0  0  0  0  0  0  0  0  0  0  0  0
    4.6458    0.3493   16.7804 C   0  0  0  0  0  0  0  0  0  0  0  0
    2.6580    1.9269   16.4291 C   0  0  0  0  0  0  0  0  0  0  0  0
    2.2699    3.2942   16.4079 C   0  0  0  0  0  0  0  0  0  0  0  0
    3.2284    4.3075   16.6847 C   0  0  0  0  0  0  0  0  0  0  0  0
    4.5727    3.9535   16.9799 C   0  0  0  0  0  0  0  0  0  0  0  0
    4.9632    2.5778   16.9868 C   0  0  0  0  0  0  0  0  0  0  0  0
    4.0162    1.5739   16.7138 C   0  0  0  0  0  0  0  0  0  0  0  0
  1  6  1  0  0  0  0
  2  4  1  0  0  0  0
  3  7  1  0  0  0  0
  4  5  1  0  0  0  0
  6  2  1  0  0  0  0
  7  8  1  0  0  0  0
  8  9  1  0  0  0  0
  9 10  1  0  0  0  0
 10 11  1  0  0  0  0
 10 12  1  0  0  0  0
 11 13  1  0  0  0  0
 13 15  1  0  0  0  0
 14 12  1  0  0  0  0
 15 14  1  0  0  0  0
 16 18  2  0  0  0  0
 16 22  1  0  0  0  0
 17 23  1  0  0  0  0
 17 29  1  0  0  0  0
 18 19  1  0  0  0  0
 18 26  1  0  0  0  0
 19 20  2  0  0  0  0
 20  3  1  0  0  0  0
 20 21  1  0  0  0  0
 21  5  1  0  0  0  0
 21 22  2  0  0  0  0
 23 24  2  0  0  0  0
 24 30  1  0  0  0  0
 25 26  2  0  0  0  0
 25 30  1  0  0  0  0
 26 27  1  0  0  0  0
 27 28  2  0  0  0  0
 28 29  1  0  0  0  0
 29 30  2  0  0  0  0
M  END
>  <CHROM.1>
71.79738640,-151.79827761,95.54025014,-158.70292489,175.94639485,-161.10876154
-169.18432337,-163.63021981,140.08800271,-129.05397114,96.84321582,-0.36763399
3.76712097,13.98504405,2.37355447,0.16619323,-1.36610539

>  <Name>
1uts_lig

>  <RI>
0

>  <Rbt.Current_Directory>
/home/itssahil/PROJECTS/Mol_Feturizer/New_Systems/rnas/1uts

>  <Rbt.Executable>
rbdock ($Id: //depot/dev/client3/rdock/2013.1/src/exe/rbdock.cxx#4 $)

>  <Rbt.Library>
libRbt.so (2013.1, Build901 2013/11/27)

>  <Rbt.Parameter_File>
/export/apps/rDock/src/rDock_2013.1_src/data/scripts/dock_solv.prm

>  <Rbt.Receptor>
prm/pocket_docking_8.prm

>  <SCORE>
-36.7444

>  <SCORE.INTER>
-34.5068

>  <SCORE.INTER.CONST>
1

>  <SCORE.INTER.POLAR>
-1.88805

>  <SCORE.INTER.ROT>
10

>  <SCORE.INTER.SOLV>
10.2477

>  <SCORE.INTER.VDW>
-30.3936

>  <SCORE.INTER.norm>
-1.15023

>  <SCORE.INTRA>
-2.23763

>  <SCORE.INTRA.DIHEDRAL>
-1.55861

>  <SCORE.INTRA.DIHEDRAL.0>
18.0451

>  <SCORE.INTRA.POLAR>
-0.331905

>  <SCORE.INTRA.POLAR.0>
-0.196815

>  <SCORE.INTRA.REPUL>
0

>  <SCORE.INTRA.REPUL.0>
0

>  <SCORE.INTRA.SOLV>
-0.374039

>  <SCORE.INTRA.SOLV.lig_0>
-14.7906

>  <SCORE.INTRA.VDW>
-0.14283

>  <SCORE.INTRA.VDW.0>
-0.411701

>  <SCORE.INTRA.norm>
-0.0745876

>  <SCORE.RESTR>
0

>  <SCORE.RESTR.CAVITY>
0

>  <SCORE.RESTR.norm>
0

>  <SCORE.SYSTEM>
0

>  <SCORE.SYSTEM.CONST>
0

>  <SCORE.SYSTEM.DIHEDRAL>
0

>  <SCORE.SYSTEM.SOLV>
0

>  <SCORE.SYSTEM.norm>
0

>  <SCORE.heavy>
30

>  <SCORE.norm>
-1.22481

>  <RMSD>
9.776

$$$$
1uts_lig
 OpenBabel11021811413D
libRbt.so/2013.1/901 2013/11/27
 30 33  0  0  0  0  0  0  0  0999 V2000
   -7.2388    4.4167   16.1462 N   0  0  0  0  0  0  0  0  0  0  0  0
   -5.4360    3.3100   14.8963 C   0  0  0  0  0  0  0  0  0  0  0  0
   -1.3654    3.6578   15.0457 C   0  0  0  0  0  0  0  0  0  0  0  0
   -4.3940    4.2289   15.5404 C   0  0  0  0  0  0  0  0  0  0  0  0
   -3.8169    3.5708   16.6778 O   0  0  0  0  0  0  0  0  0  0  0  0
   -6.6065    3.1090   15.8604 C   0  0  0  0  0  0  0  0  0  0  0  0
   -1.6917    4.5869   13.9400 N   0  0  0  0  0  0  0  0  0  0  0  0
   -2.4313    3.8584   12.8754 C   0  0  0  0  0  0  0  0  0  0  0  0
   -1.6768    3.9757   11.5478 C   0  0  0  0  0  0  0  0  0  0  0  0
   -2.1051    5.2060   10.8449 N   0  0  0  0  0  0  0  0  0  0  0  0
   -1.3544    5.3268    9.5621 C   0  0  0  0  0  0  0  0  0  0  0  0
   -1.8435    6.3881   11.7139 C   0  0  0  0  0  0  0  0  0  0  0  0
   -1.7938    6.6056    8.8309 C   0  0  0  0  0  0  0  0  0  0  0  0
   -2.2797    7.6697   10.9813 C   0  0  0  0  0  0  0  0  0  0  0  0
   -1.5313    7.7884    9.6991 N   0  0  0  0  0  0  0  0  0  0  0  0
   -1.6550    5.7135   18.9064 C   0  0  0  0  0  0  0  0  0  0  0  0
    4.0955    8.4141   20.1419 N   0  0  0  0  0  0  0  0  0  0  0  0
   -0.4528    5.7650   18.1612 C   0  0  0  0  0  0  0  0  0  0  0  0
   -0.3656    5.0963   16.9111 C   0  0  0  0  0  0  0  0  0  0  0  0
   -1.4830    4.3777   16.4043 C   0  0  0  0  0  0  0  0  0  0  0  0
   -2.6890    4.3134   17.1650 C   0  0  0  0  0  0  0  0  0  0  0  0
   -2.7715    4.9874   18.4143 C   0  0  0  0  0  0  0  0  0  0  0  0
    4.9543    7.2918   20.1674 C   0  0  0  0  0  0  0  0  0  0  0  0
    4.2786    6.1286   19.7336 C   0  0  0  0  0  0  0  0  0  0  0  0
    1.8698    5.7999   18.9253 C   0  0  0  0  0  0  0  0  0  0  0  0
    0.6452    6.4743   18.6680 C   0  0  0  0  0  0  0  0  0  0  0  0
    0.5383    7.8699   18.9189 C   0  0  0  0  0  0  0  0  0  0  0  0
    1.6549    8.5894   19.4239 C   0  0  0  0  0  0  0  0  0  0  0  0
    2.8897    7.9109   19.6686 C   0  0  0  0  0  0  0  0  0  0  0  0
    2.9972    6.5300   19.4215 C   0  0  0  0  0  0  0  0  0  0  0  0
  1  6  1  0  0  0  0
  2  4  1  0  0  0  0
  3  7  1  0  0  0  0
  4  5  1  0  0  0  0
  6  2  1  0  0  0  0
  7  8  1  0  0  0  0
  8  9  1  0  0  0  0
  9 10  1  0  0  0  0
 10 11  1  0  0  0  0
 10 12  1  0  0  0  0
 11 13  1  0  0  0  0
 13 15  1  0  0  0  0
 14 12  1  0  0  0  0
 15 14  1  0  0  0  0
 16 18  2  0  0  0  0
 16 22  1  0  0  0  0
 17 23  1  0  0  0  0
 17 29  1  0  0  0  0
 18 19  1  0  0  0  0
 18 26  1  0  0  0  0
 19 20  2  0  0  0  0
 20  3  1  0  0  0  0
 20 21  1  0  0  0  0
 21  5  1  0  0  0  0
 21 22  2  0  0  0  0
 23 24  2  0  0  0  0
 24 30  1  0  0  0  0
 25 26  2  0  0  0  0
 25 30  1  0  0  0  0
 26 27  1  0  0  0  0
 27 28  2  0  0  0  0
 28 29  1  0  0  0  0
 29 30  2  0  0  0  0
M  END
>  <CHROM.1>
174.11478227,65.89895904,-142.93429104,170.50590146,60.93395407,-122.26110122
-87.68548517,179.20189208,119.63108999,-86.60731503,-69.79086181,-1.17121465
5.61028822,15.67398988,2.30143084,-0.45688187,-1.45068222

>  <Name>
1uts_lig

>  <RI>
0

>  <Rbt.Current_Directory>
/home/itssahil/PROJECTS/Mol_Feturizer/New_Systems/rnas/1uts

>  <Rbt.Executable>
rbdock ($Id: //depot/dev/client3/rdock/2013.1/src/exe/rbdock.cxx#4 $)

>  <Rbt.Library>
libRbt.so (2013.1, Build901 2013/11/27)

>  <Rbt.Parameter_File>
/export/apps/rDock/src/rDock_2013.1_src/data/scripts/dock_solv.prm

>  <Rbt.Receptor>
prm/pocket_docking_5.prm

>  <SCORE>
-42.9292

>  <SCORE.INTER>
-46.1586

>  <SCORE.INTER.CONST>
1

>  <SCORE.INTER.POLAR>
-3.17336

>  <SCORE.INTER.ROT>
10

>  <SCORE.INTER.SOLV>
12.2157

>  <SCORE.INTER.VDW>
-34.5331

>  <SCORE.INTER.norm>
-1.53862

>  <SCORE.INTRA>
2.84212

>  <SCORE.INTRA.DIHEDRAL>
-0.374589

>  <SCORE.INTRA.DIHEDRAL.0>
18.0451

>  <SCORE.INTRA.POLAR>
0.196815

>  <SCORE.INTRA.POLAR.0>
-0.196815

>  <SCORE.INTRA.REPUL>
0

>  <SCORE.INTRA.REPUL.0>
0

>  <SCORE.INTRA.SOLV>
0.0793116

>  <SCORE.INTRA.SOLV.lig_0>
-14.7906

>  <SCORE.INTRA.VDW>
2.32058

>  <SCORE.INTRA.VDW.0>
-0.411701

>  <SCORE.INTRA.norm>
0.0947372

>  <SCORE.RESTR>
0.387222

>  <SCORE.RESTR.CAVITY>
0.387222

>  <SCORE.RESTR.norm>
0.0129074

>  <SCORE.SYSTEM>
0

>  <SCORE.SYSTEM.CONST>
0

>  <SCORE.SYSTEM.DIHEDRAL>
0

>  <SCORE.SYSTEM.SOLV>
0

>  <SCORE.SYSTEM.norm>
0

>  <SCORE.heavy>
30

>  <SCORE.norm>
-1.43097

>  <RMSD>
9.782

$$$$
1uts_lig
 OpenBabel11021811413D
libRbt.so/2013.1/901 2013/11/27
 30 33  0  0  0  0  0  0  0  0999 V2000
   -5.3519   -3.3691   13.9918 N   0  0  0  0  0  0  0  0  0  0  0  0
   -4.3138   -1.8232   15.5948 C   0  0  0  0  0  0  0  0  0  0  0  0
   -3.0801    2.6961   14.8740 C   0  0  0  0  0  0  0  0  0  0  0  0
   -3.0148   -1.0968   15.9555 C   0  0  0  0  0  0  0  0  0  0  0  0
   -2.6467   -0.2183   14.8820 O   0  0  0  0  0  0  0  0  0  0  0  0
   -4.0851   -2.6981   14.3609 C   0  0  0  0  0  0  0  0  0  0  0  0
   -2.9370    3.3823   13.5699 N   0  0  0  0  0  0  0  0  0  0  0  0
   -2.1179    4.6118   13.7381 C   0  0  0  0  0  0  0  0  0  0  0  0
   -1.4858    5.0004   12.3983 C   0  0  0  0  0  0  0  0  0  0  0  0
   -2.4907    5.6953   11.5627 N   0  0  0  0  0  0  0  0  0  0  0  0
   -3.2786    4.6858   10.7986 C   0  0  0  0  0  0  0  0  0  0  0  0
   -1.7976    6.6286   10.6302 C   0  0  0  0  0  0  0  0  0  0  0  0
   -4.3209    5.4042    9.9264 C   0  0  0  0  0  0  0  0  0  0  0  0
   -2.8402    7.3458    9.7537 C   0  0  0  0  0  0  0  0  0  0  0  0
   -3.6283    6.3368    8.9927 N   0  0  0  0  0  0  0  0  0  0  0  0
    0.7463    0.9241   16.0712 C   0  0  0  0  0  0  0  0  0  0  0  0
    4.8921    5.5099   17.7849 N   0  0  0  0  0  0  0  0  0  0  0  0
    0.5846    2.3301   16.0639 C   0  0  0  0  0  0  0  0  0  0  0  0
   -0.6578    2.8978   15.6745 C   0  0  0  0  0  0  0  0  0  0  0  0
   -1.7407    2.0581   15.2948 C   0  0  0  0  0  0  0  0  0  0  0  0
   -1.5703    0.6410   15.2871 C   0  0  0  0  0  0  0  0  0  0  0  0
   -0.3254    0.0783   15.6809 C   0  0  0  0  0  0  0  0  0  0  0  0
    4.8432    5.1467   19.1500 C   0  0  0  0  0  0  0  0  0  0  0  0
    3.7862    4.2408   19.3942 C   0  0  0  0  0  0  0  0  0  0  0  0
    2.0726    3.2038   17.7966 C   0  0  0  0  0  0  0  0  0  0  0  0
    1.6572    3.1517   16.4382 C   0  0  0  0  0  0  0  0  0  0  0  0
    2.3357    3.9285   15.4591 C   0  0  0  0  0  0  0  0  0  0  0  0
    3.4287    4.7538   15.8383 C   0  0  0  0  0  0  0  0  0  0  0  0
    3.8531    4.7934   17.2033 C   0  0  0  0  0  0  0  0  0  0  0  0
    3.1827    4.0261   18.1734 C   0  0  0  0  0  0  0  0  0  0  0  0
  1  6  1  0  0  0  0
  2  4  1  0  0  0  0
  3  7  1  0  0  0  0
  4  5  1  0  0  0  0
  6  2  1  0  0  0  0
  7  8  1  0  0  0  0
  8  9  1  0  0  0  0
  9 10  1  0  0  0  0
 10 11  1  0  0  0  0
 10 12  1  0  0  0  0
 11 13  1  0  0  0  0
 13 15  1  0  0  0  0
 14 12  1  0  0  0  0
 15 14  1  0  0  0  0
 16 18  2  0  0  0  0
 16 22  1  0  0  0  0
 17 23  1  0  0  0  0
 17 29  1  0  0  0  0
 18 19  1  0  0  0  0
 18 26  1  0  0  0  0
 19 20  2  0  0  0  0
 20  3  1  0  0  0  0
 20 21  1  0  0  0  0
 21  5  1  0  0  0  0
 21 22  2  0  0  0  0
 23 24  2  0  0  0  0
 24 30  1  0  0  0  0
 25 26  2  0  0  0  0
 25 30  1  0  0  0  0
 26 27  1  0  0  0  0
 27 28  2  0  0  0  0
 28 29  1  0  0  0  0
 29 30  2  0  0  0  0
M  END
>  <CHROM.1>
-57.04334267,63.07817566,-71.19379073,169.97240459,-178.41018055,156.74548862
79.47101217,-86.68993937,-70.72857853,69.75753233,-119.41724190,-0.84213893
2.98030108,14.60941327,2.92478452,-0.65610596,-0.59924136

>  <Name>
1uts_lig

>  <RI>
0

>  <Rbt.Current_Directory>
/home/itssahil/PROJECTS/Mol_Feturizer/New_Systems/rnas/1uts

>  <Rbt.Executable>
rbdock ($Id: //depot/dev/client3/rdock/2013.1/src/exe/rbdock.cxx#4 $)

>  <Rbt.Library>
libRbt.so (2013.1, Build901 2013/11/27)

>  <Rbt.Parameter_File>
/export/apps/rDock/src/rDock_2013.1_src/data/scripts/dock_solv.prm

>  <Rbt.Receptor>
prm/pocket_docking_7.prm

>  <SCORE>
-33.2943

>  <SCORE.INTER>
-31.9054

>  <SCORE.INTER.CONST>
1

>  <SCORE.INTER.POLAR>
-2.84561

>  <SCORE.INTER.ROT>
10

>  <SCORE.INTER.SOLV>
9.13943

>  <SCORE.INTER.VDW>
-25.098

>  <SCORE.INTER.norm>
-1.06351

>  <SCORE.INTRA>
-1.40251

>  <SCORE.INTRA.DIHEDRAL>
-4.50975

>  <SCORE.INTRA.DIHEDRAL.0>
18.0451

>  <SCORE.INTRA.POLAR>
0.196815

>  <SCORE.INTRA.POLAR.0>
-0.196815

>  <SCORE.INTRA.REPUL>
0

>  <SCORE.INTRA.REPUL.0>
0

>  <SCORE.INTRA.SOLV>
-0.339024

>  <SCORE.INTRA.SOLV.lig_0>
-14.7906

>  <SCORE.INTRA.VDW>
0.352705

>  <SCORE.INTRA.VDW.0>
-0.411701

>  <SCORE.INTRA.norm>
-0.0467503

>  <SCORE.RESTR>
0.0136123

>  <SCORE.RESTR.CAVITY>
0.0136123

>  <SCORE.RESTR.norm>
0.000453744

>  <SCORE.SYSTEM>
0

>  <SCORE.SYSTEM.CONST>
0

>  <SCORE.SYSTEM.DIHEDRAL>
0

>  <SCORE.SYSTEM.SOLV>
0

>  <SCORE.SYSTEM.norm>
0

>  <SCORE.heavy>
30

>  <SCORE.norm>
-1.10981

>  <RMSD>
9.782

$$$$
1uts_lig
 OpenBabel11021811413D
libRbt.so/2013.1/901 2013/11/27
 30 33  0  0  0  0  0  0  0  0999 V2000
   -1.7872    7.1276   10.9937 N   0  0  0  0  0  0  0  0  0  0  0  0
   -2.1422    5.2107   12.4892 C   0  0  0  0  0  0  0  0  0  0  0  0
   -3.5668    4.5119   16.3436 C   0  0  0  0  0  0  0  0  0  0  0  0
   -2.0636    3.6847   12.5915 C   0  0  0  0  0  0  0  0  0  0  0  0
   -2.4680    3.2742   13.9059 O   0  0  0  0  0  0  0  0  0  0  0  0
   -1.7165    5.6520   11.0876 C   0  0  0  0  0  0  0  0  0  0  0  0
   -4.3295    3.9360   15.2128 N   0  0  0  0  0  0  0  0  0  0  0  0
   -4.6381    2.5085   15.4923 C   0  0  0  0  0  0  0  0  0  0  0  0
   -6.0894    2.3749   15.9628 C   0  0  0  0  0  0  0  0  0  0  0  0
   -6.9614    2.1010   14.7986 N   0  0  0  0  0  0  0  0  0  0  0  0
   -7.1842    3.3665   14.0418 C   0  0  0  0  0  0  0  0  0  0  0  0
   -8.2594    1.5438   15.2737 C   0  0  0  0  0  0  0  0  0  0  0  0
   -8.0929    3.0866   12.8338 C   0  0  0  0  0  0  0  0  0  0  0  0
   -9.1716    1.2667   14.0652 C   0  0  0  0  0  0  0  0  0  0  0  0
   -9.3917    2.5305   13.3085 N   0  0  0  0  0  0  0  0  0  0  0  0
    0.7493    4.2051   15.6420 C   0  0  0  0  0  0  0  0  0  0  0  0
    3.7171    7.0443   20.6594 N   0  0  0  0  0  0  0  0  0  0  0  0
    0.2618    4.8233   16.8182 C   0  0  0  0  0  0  0  0  0  0  0  0
   -1.1380    4.9198   17.0391 C   0  0  0  0  0  0  0  0  0  0  0  0
   -2.0512    4.3946   16.0840 C   0  0  0  0  0  0  0  0  0  0  0  0
   -1.5577    3.7862   14.8909 C   0  0  0  0  0  0  0  0  0  0  0  0
   -0.1554    3.6897   14.6766 C   0  0  0  0  0  0  0  0  0  0  0  0
    2.8871    8.1240   21.0378 C   0  0  0  0  0  0  0  0  0  0  0  0
    1.6867    8.1241   20.2917 C   0  0  0  0  0  0  0  0  0  0  0  0
    0.8445    6.5171   18.4828 C   0  0  0  0  0  0  0  0  0  0  0  0
    1.1682    5.3401   17.7546 C   0  0  0  0  0  0  0  0  0  0  0  0
    2.4092    4.6843   17.9826 C   0  0  0  0  0  0  0  0  0  0  0  0
    3.3232    5.2039   18.9388 C   0  0  0  0  0  0  0  0  0  0  0  0
    2.9886    6.3804   19.6797 C   0  0  0  0  0  0  0  0  0  0  0  0
    1.7615    7.0309   19.4551 C   0  0  0  0  0  0  0  0  0  0  0  0
  1  6  1  0  0  0  0
  2  4  1  0  0  0  0
  3  7  1  0  0  0  0
  4  5  1  0  0  0  0
  6  2  1  0  0  0  0
  7  8  1  0  0  0  0
  8  9  1  0  0  0  0
  9 10  1  0  0  0  0
 10 11  1  0  0  0  0
 10 12  1  0  0  0  0
 11 13  1  0  0  0  0
 13 15  1  0  0  0  0
 14 12  1  0  0  0  0
 15 14  1  0  0  0  0
 16 18  2  0  0  0  0
 16 22  1  0  0  0  0
 17 23  1  0  0  0  0
 17 29  1  0  0  0  0
 18 19  1  0  0  0  0
 18 26  1  0  0  0  0
 19 20  2  0  0  0  0
 20  3  1  0  0  0  0
 20 21  1  0  0  0  0
 21  5  1  0  0  0  0
 21 22  2  0  0  0  0
 23 24  2  0  0  0  0
 24 30  1  0  0  0  0
 25 26  2  0  0  0  0
 25 30  1  0  0  0  0
 26 27  1  0  0  0  0
 27 28  2  0  0  0  0
 28 29  1  0  0  0  0
 29 30  2  0  0  0  0
M  END
>  <CHROM.1>
174.04492829,-179.79940473,92.94107696,-63.67013800,-179.72992120,101.29737971
92.55497966,-77.12727448,145.27791782,178.50117313,134.33532084,-2.21574902
4.50700434,15.78541969,-2.69432507,0.42021708,1.65614626

>  <Name>
1uts_lig

>  <RI>
0

>  <Rbt.Current_Directory>
/home/itssahil/PROJECTS/Mol_Feturizer/New_Systems/rnas/1uts

>  <Rbt.Executable>
rbdock ($Id: //depot/dev/client3/rdock/2013.1/src/exe/rbdock.cxx#4 $)

>  <Rbt.Library>
libRbt.so (2013.1, Build901 2013/11/27)

>  <Rbt.Parameter_File>
/export/apps/rDock/src/rDock_2013.1_src/data/scripts/dock_solv.prm

>  <Rbt.Receptor>
prm/pocket_docking_5.prm

>  <SCORE>
-34.4318

>  <SCORE.INTER>
-37.2812

>  <SCORE.INTER.CONST>
1

>  <SCORE.INTER.POLAR>
-1.98533

>  <SCORE.INTER.ROT>
10

>  <SCORE.INTER.SOLV>
9.48787

>  <SCORE.INTER.VDW>
-31.6656

>  <SCORE.INTER.norm>
-1.24271

>  <SCORE.INTRA>
2.84935

>  <SCORE.INTRA.DIHEDRAL>
-4.44192

>  <SCORE.INTRA.DIHEDRAL.0>
18.0451

>  <SCORE.INTRA.POLAR>
-0.237617

>  <SCORE.INTRA.POLAR.0>
-0.196815

>  <SCORE.INTRA.REPUL>
0

>  <SCORE.INTRA.REPUL.0>
0

>  <SCORE.INTRA.SOLV>
0.022248

>  <SCORE.INTRA.SOLV.lig_0>
-14.7906

>  <SCORE.INTRA.VDW>
5.86709

>  <SCORE.INTRA.VDW.0>
-0.411701

>  <SCORE.INTRA.norm>
0.0949784

>  <SCORE.RESTR>
0

>  <SCORE.RESTR.CAVITY>
0

>  <SCORE.RESTR.norm>
0

>  <SCORE.SYSTEM>
0

>  <SCORE.SYSTEM.CONST>
0

>  <SCORE.SYSTEM.DIHEDRAL>
0

>  <SCORE.SYSTEM.SOLV>
0

>  <SCORE.SYSTEM.norm>
0

>  <SCORE.heavy>
30

>  <SCORE.norm>
-1.14773

>  <RMSD>
9.800

$$$$
1uts_lig
 OpenBabel11021811413D
libRbt.so/2013.1/901 2013/11/27
 30 33  0  0  0  0  0  0  0  0999 V2000
   -3.1792   -3.7708   15.4465 N   0  0  0  0  0  0  0  0  0  0  0  0
   -2.2533   -1.4982   15.3241 C   0  0  0  0  0  0  0  0  0  0  0  0
   -1.8288    3.2083   14.4283 C   0  0  0  0  0  0  0  0  0  0  0  0
   -1.4874   -0.4261   16.1046 C   0  0  0  0  0  0  0  0  0  0  0  0
   -0.9113    0.5125   15.1842 O   0  0  0  0  0  0  0  0  0  0  0  0
   -2.4177   -2.7453   16.1947 C   0  0  0  0  0  0  0  0  0  0  0  0
   -1.1469    3.6704   13.1981 N   0  0  0  0  0  0  0  0  0  0  0  0
   -2.1552    4.1543   12.2182 C   0  0  0  0  0  0  0  0  0  0  0  0
   -1.6812    3.8496   10.7941 C   0  0  0  0  0  0  0  0  0  0  0  0
   -2.4702    4.6495    9.8305 N   0  0  0  0  0  0  0  0  0  0  0  0
   -3.9025    4.2417    9.9084 C   0  0  0  0  0  0  0  0  0  0  0  0
   -1.9408    4.4292    8.4550 C   0  0  0  0  0  0  0  0  0  0  0  0
   -4.7246    5.0679    8.9061 C   0  0  0  0  0  0  0  0  0  0  0  0
   -2.7656    5.2531    7.4499 C   0  0  0  0  0  0  0  0  0  0  0  0
   -4.1964    4.8470    7.5300 N   0  0  0  0  0  0  0  0  0  0  0  0
    1.0980    2.5674   17.6280 C   0  0  0  0  0  0  0  0  0  0  0  0
    3.1199    8.1721   19.9914 N   0  0  0  0  0  0  0  0  0  0  0  0
    0.6966    3.8802   17.2832 C   0  0  0  0  0  0  0  0  0  0  0  0
   -0.2519    4.0808   16.2451 C   0  0  0  0  0  0  0  0  0  0  0  0
   -0.8019    2.9670   15.5531 C   0  0  0  0  0  0  0  0  0  0  0  0
   -0.3835    1.6450   15.8913 C   0  0  0  0  0  0  0  0  0  0  0  0
    0.5639    1.4501   16.9334 C   0  0  0  0  0  0  0  0  0  0  0  0
    4.4172    7.6172   20.0732 C   0  0  0  0  0  0  0  0  0  0  0  0
    4.4533    6.3291   19.4925 C   0  0  0  0  0  0  0  0  0  0  0  0
    2.6130    4.9589   18.3525 C   0  0  0  0  0  0  0  0  0  0  0  0
    1.2443    4.9734   17.9690 C   0  0  0  0  0  0  0  0  0  0  0  0
    0.4341    6.1011   18.2759 C   0  0  0  0  0  0  0  0  0  0  0  0
    0.9929    7.2126   18.9629 C   0  0  0  0  0  0  0  0  0  0  0  0
    2.3736    7.2008   19.3351 C   0  0  0  0  0  0  0  0  0  0  0  0
    3.1765    6.0858   19.0329 C   0  0  0  0  0  0  0  0  0  0  0  0
  1  6  1  0  0  0  0
  2  4  1  0  0  0  0
  3  7  1  0  0  0  0
  4  5  1  0  0  0  0
  6  2  1  0  0  0  0
  7  8  1  0  0  0  0
  8  9  1  0  0  0  0
  9 10  1  0  0  0  0
 10 11  1  0  0  0  0
 10 12  1  0  0  0  0
 11 13  1  0  0  0  0
 13 15  1  0  0  0  0
 14 12  1  0  0  0  0
 15 14  1  0  0  0  0
 16 18  2  0  0  0  0
 16 22  1  0  0  0  0
 17 23  1  0  0  0  0
 17 29  1  0  0  0  0
 18 19  1  0  0  0  0
 18 26  1  0  0  0  0
 19 20  2  0  0  0  0
 20  3  1  0  0  0  0
 20 21  1  0  0  0  0
 21  5  1  0  0  0  0
 21 22  2  0  0  0  0
 23 24  2  0  0  0  0
 24 30  1  0  0  0  0
 25 26  2  0  0  0  0
 25 30  1  0  0  0  0
 26 27  1  0  0  0  0
 27 28  2  0  0  0  0
 28 29  1  0  0  0  0
 29 30  2  0  0  0  0
M  END
>  <CHROM.1>
67.68223655,159.04305414,-168.82051278,170.26681755,179.00186227,-146.53169139
-164.16966004,-63.20472951,37.81875424,76.64054548,-125.01851762,-0.57216470
3.59107020,14.88671939,2.86111994,-1.00630574,-0.60396997

>  <Name>
1uts_lig

>  <RI>
0

>  <Rbt.Current_Directory>
/home/itssahil/PROJECTS/Mol_Feturizer/New_Systems/rnas/1uts

>  <Rbt.Executable>
rbdock ($Id: //depot/dev/client3/rdock/2013.1/src/exe/rbdock.cxx#4 $)

>  <Rbt.Library>
libRbt.so (2013.1, Build901 2013/11/27)

>  <Rbt.Parameter_File>
/export/apps/rDock/src/rDock_2013.1_src/data/scripts/dock_solv.prm

>  <Rbt.Receptor>
prm/pocket_docking_8.prm

>  <SCORE>
-30.676

>  <SCORE.INTER>
-29.5891

>  <SCORE.INTER.CONST>
1

>  <SCORE.INTER.POLAR>
-3.09087

>  <SCORE.INTER.ROT>
10

>  <SCORE.INTER.SOLV>
7.81617

>  <SCORE.INTER.VDW>
-22.2952

>  <SCORE.INTER.norm>
-0.986304

>  <SCORE.INTRA>
-1.08687

>  <SCORE.INTRA.DIHEDRAL>
-6.82546

>  <SCORE.INTRA.DIHEDRAL.0>
18.0451

>  <SCORE.INTRA.POLAR>
0.196815

>  <SCORE.INTRA.POLAR.0>
-0.196815

>  <SCORE.INTRA.REPUL>
0

>  <SCORE.INTRA.REPUL.0>
0

>  <SCORE.INTRA.SOLV>
-0.654591

>  <SCORE.INTRA.SOLV.lig_0>
-14.7906

>  <SCORE.INTRA.VDW>
1.98398

>  <SCORE.INTRA.VDW.0>
-0.411701

>  <SCORE.INTRA.norm>
-0.0362291

>  <SCORE.RESTR>
0

>  <SCORE.RESTR.CAVITY>
0

>  <SCORE.RESTR.norm>
0

>  <SCORE.SYSTEM>
0

>  <SCORE.SYSTEM.CONST>
0

>  <SCORE.SYSTEM.DIHEDRAL>
0

>  <SCORE.SYSTEM.SOLV>
0

>  <SCORE.SYSTEM.norm>
0

>  <SCORE.heavy>
30

>  <SCORE.norm>
-1.02253

>  <RMSD>
9.800

$$$$
1uts_lig
 OpenBabel11021811413D
libRbt.so/2013.1/901 2013/11/27
 30 33  0  0  0  0  0  0  0  0999 V2000
   -6.5015    3.3091   13.0364 N   0  0  0  0  0  0  0  0  0  0  0  0
   -6.5693    4.1224   15.3540 C   0  0  0  0  0  0  0  0  0  0  0  0
   -2.5019    2.7462   15.0724 C   0  0  0  0  0  0  0  0  0  0  0  0
   -5.2535    3.6578   15.9850 C   0  0  0  0  0  0  0  0  0  0  0  0
   -4.3651    4.7777   16.1128 O   0  0  0  0  0  0  0  0  0  0  0  0
   -7.0731    3.0571   14.3785 C   0  0  0  0  0  0  0  0  0  0  0  0
   -1.2472    2.7732   14.2868 N   0  0  0  0  0  0  0  0  0  0  0  0
   -1.5354    3.2189   12.8978 C   0  0  0  0  0  0  0  0  0  0  0  0
   -1.9264    4.6996   12.8997 C   0  0  0  0  0  0  0  0  0  0  0  0
   -2.1551    5.1505   11.5086 N   0  0  0  0  0  0  0  0  0  0  0  0
   -2.2676    6.6373   11.4851 C   0  0  0  0  0  0  0  0  0  0  0  0
   -3.4031    4.5261   10.9856 C   0  0  0  0  0  0  0  0  0  0  0  0
   -2.5091    7.1091   10.0421 C   0  0  0  0  0  0  0  0  0  0  0  0
   -3.6479    5.0008    9.5419 C   0  0  0  0  0  0  0  0  0  0  0  0
   -3.7578    6.4859    9.5189 N   0  0  0  0  0  0  0  0  0  0  0  0
   -1.8862    4.6857   18.9549 C   0  0  0  0  0  0  0  0  0  0  0  0
    3.5522    2.2541   21.5023 N   0  0  0  0  0  0  0  0  0  0  0  0
   -0.9771    3.7013   18.4992 C   0  0  0  0  0  0  0  0  0  0  0  0
   -1.1828    3.0764   17.2403 C   0  0  0  0  0  0  0  0  0  0  0  0
   -2.2972    3.4388   16.4349 C   0  0  0  0  0  0  0  0  0  0  0  0
   -3.2217    4.4200   16.9037 C   0  0  0  0  0  0  0  0  0  0  0  0
   -3.0090    5.0443   18.1633 C   0  0  0  0  0  0  0  0  0  0  0  0
    4.3288    1.7699   20.4252 C   0  0  0  0  0  0  0  0  0  0  0  0
    3.6165    1.8607   19.2078 C   0  0  0  0  0  0  0  0  0  0  0  0
    1.2689    2.7575   18.7093 C   0  0  0  0  0  0  0  0  0  0  0  0
    0.1185    3.3481   19.2994 C   0  0  0  0  0  0  0  0  0  0  0  0
    0.0840    3.5864   20.7009 C   0  0  0  0  0  0  0  0  0  0  0  0
    1.1989    3.2365   21.5096 C   0  0  0  0  0  0  0  0  0  0  0  0
    2.3603    2.6552   20.9109 C   0  0  0  0  0  0  0  0  0  0  0  0
    2.3960    2.4181   19.5246 C   0  0  0  0  0  0  0  0  0  0  0  0
  1  6  1  0  0  0  0
  2  4  1  0  0  0  0
  3  7  1  0  0  0  0
  4  5  1  0  0  0  0
  6  2  1  0  0  0  0
  7  8  1  0  0  0  0
  8  9  1  0  0  0  0
  9 10  1  0  0  0  0
 10 11  1  0  0  0  0
 10 12  1  0  0  0  0
 11 13  1  0  0  0  0
 13 15  1  0  0  0  0
 14 12  1  0  0  0  0
 15 14  1  0  0  0  0
 16 18  2  0  0  0  0
 16 22  1  0  0  0  0
 17 23  1  0  0  0  0
 17 29  1  0  0  0  0
 18 19  1  0  0  0  0
 18 26  1  0  0  0  0
 19 20  2  0  0  0  0
 20  3  1  0  0  0  0
 20 21  1  0  0  0  0
 21  5  1  0  0  0  0
 21 22  2  0  0  0  0
 23 24  2  0  0  0  0
 24 30  1  0  0  0  0
 25 26  2  0  0  0  0
 25 30  1  0  0  0  0
 26 27  1  0  0  0  0
 27 28  2  0  0  0  0
 28 29  1  0  0  0  0
 29 30  2  0  0  0  0
M  END
>  <CHROM.1>
169.01914269,141.22431747,-132.75524880,170.18924526,-88.86088051,69.29480145
177.58680926,-168.86313859,-157.47575051,-49.60168936,65.07625734,-1.73655783
3.88579790,15.83531223,2.16593150,0.02672773,-1.32504904

>  <Name>
1uts_lig

>  <RI>
0

>  <Rbt.Current_Directory>
/home/itssahil/PROJECTS/Mol_Feturizer/New_Systems/rnas/1uts

>  <Rbt.Executable>
rbdock ($Id: //depot/dev/client3/rdock/2013.1/src/exe/rbdock.cxx#4 $)

>  <Rbt.Library>
libRbt.so (2013.1, Build901 2013/11/27)

>  <Rbt.Parameter_File>
/export/apps/rDock/src/rDock_2013.1_src/data/scripts/dock_solv.prm

>  <Rbt.Receptor>
prm/pocket_docking_4.prm

>  <SCORE>
-18.9881

>  <SCORE.INTER>
-20.9588

>  <SCORE.INTER.CONST>
1

>  <SCORE.INTER.POLAR>
-0.473088

>  <SCORE.INTER.ROT>
10

>  <SCORE.INTER.SOLV>
9.10747

>  <SCORE.INTER.VDW>
-25.6981

>  <SCORE.INTER.norm>
-0.698627

>  <SCORE.INTRA>
1.96431

>  <SCORE.INTRA.DIHEDRAL>
-1.61435

>  <SCORE.INTRA.DIHEDRAL.0>
18.0451

>  <SCORE.INTRA.POLAR>
0.196815

>  <SCORE.INTRA.POLAR.0>
-0.196815

>  <SCORE.INTRA.REPUL>
0

>  <SCORE.INTRA.REPUL.0>
0

>  <SCORE.INTRA.SOLV>
-0.330149

>  <SCORE.INTRA.SOLV.lig_0>
-14.7906

>  <SCORE.INTRA.VDW>
2.26738

>  <SCORE.INTRA.VDW.0>
-0.411701

>  <SCORE.INTRA.norm>
0.0654769

>  <SCORE.RESTR>
0.00640687

>  <SCORE.RESTR.CAVITY>
0.00640687

>  <SCORE.RESTR.norm>
0.000213562

>  <SCORE.SYSTEM>
0

>  <SCORE.SYSTEM.CONST>
0

>  <SCORE.SYSTEM.DIHEDRAL>
0

>  <SCORE.SYSTEM.SOLV>
0

>  <SCORE.SYSTEM.norm>
0

>  <SCORE.heavy>
30

>  <SCORE.norm>
-0.632936

>  <RMSD>
9.806

$$$$
1uts_lig
 OpenBabel11021811413D
libRbt.so/2013.1/901 2013/11/27
 30 33  0  0  0  0  0  0  0  0999 V2000
   -7.3740    4.5464   17.4873 N   0  0  0  0  0  0  0  0  0  0  0  0
   -5.0601    3.7709   17.7732 C   0  0  0  0  0  0  0  0  0  0  0  0
   -2.2620    3.5606   14.6327 C   0  0  0  0  0  0  0  0  0  0  0  0
   -4.7214    4.2335   16.3532 C   0  0  0  0  0  0  0  0  0  0  0  0
   -5.0790    3.2042   15.4191 O   0  0  0  0  0  0  0  0  0  0  0  0
   -6.5371    3.3789   17.8449 C   0  0  0  0  0  0  0  0  0  0  0  0
   -1.7032    3.3845   13.2730 N   0  0  0  0  0  0  0  0  0  0  0  0
   -2.4254    4.2647   12.3168 C   0  0  0  0  0  0  0  0  0  0  0  0
   -1.4244    4.9291   11.3670 C   0  0  0  0  0  0  0  0  0  0  0  0
   -2.1576    5.7192   10.3526 N   0  0  0  0  0  0  0  0  0  0  0  0
   -1.2111    6.1450    9.2818 C   0  0  0  0  0  0  0  0  0  0  0  0
   -2.7750    6.9087   11.0042 C   0  0  0  0  0  0  0  0  0  0  0  0
   -1.9684    6.9693    8.2281 C   0  0  0  0  0  0  0  0  0  0  0  0
   -3.5305    7.7369    9.9493 C   0  0  0  0  0  0  0  0  0  0  0  0
   -2.5850    8.1598    8.8790 N   0  0  0  0  0  0  0  0  0  0  0  0
   -3.7836   -0.2658   16.1353 C   0  0  0  0  0  0  0  0  0  0  0  0
    1.0882   -4.4890   16.3547 N   0  0  0  0  0  0  0  0  0  0  0  0
   -2.4271   -0.1410   15.7510 C   0  0  0  0  0  0  0  0  0  0  0  0
   -1.9407    1.1017   15.2645 C   0  0  0  0  0  0  0  0  0  0  0  0
   -2.8111    2.2217   15.1652 C   0  0  0  0  0  0  0  0  0  0  0  0
   -4.1825    2.0891   15.5378 C   0  0  0  0  0  0  0  0  0  0  0  0
   -4.6631    0.8436   16.0271 C   0  0  0  0  0  0  0  0  0  0  0  0
    1.9173   -3.9080   17.3411 C   0  0  0  0  0  0  0  0  0  0  0  0
    1.4930   -2.5953   17.6485 C   0  0  0  0  0  0  0  0  0  0  0  0
   -0.4707   -1.2202   16.7447 C   0  0  0  0  0  0  0  0  0  0  0  0
   -1.5752   -1.2500   15.8504 C   0  0  0  0  0  0  0  0  0  0  0  0
   -1.8182   -2.4086   15.0625 C   0  0  0  0  0  0  0  0  0  0  0  0
   -0.9593   -3.5355   15.1710 C   0  0  0  0  0  0  0  0  0  0  0  0
    0.1429   -3.5077   16.0817 C   0  0  0  0  0  0  0  0  0  0  0  0
    0.3852   -2.3621   16.8617 C   0  0  0  0  0  0  0  0  0  0  0  0
  1  6  1  0  0  0  0
  2  4  1  0  0  0  0
  3  7  1  0  0  0  0
  4  5  1  0  0  0  0
  6  2  1  0  0  0  0
  7  8  1  0  0  0  0
  8  9  1  0  0  0  0
  9 10  1  0  0  0  0
 10 11  1  0  0  0  0
 10 12  1  0  0  0  0
 11 13  1  0  0  0  0
 13 15  1  0  0  0  0
 14 12  1  0  0  0  0
 15 14  1  0  0  0  0
 16 18  2  0  0  0  0
 16 22  1  0  0  0  0
 17 23  1  0  0  0  0
 17 29  1  0  0  0  0
 18 19  1  0  0  0  0
 18 26  1  0  0  0  0
 19 20  2  0  0  0  0
 20  3  1  0  0  0  0
 20 21  1  0  0  0  0
 21  5  1  0  0  0  0
 21 22  2  0  0  0  0
 23 24  2  0  0  0  0
 24 30  1  0  0  0  0
 25 26  2  0  0  0  0
 25 30  1  0  0  0  0
 26 27  1  0  0  0  0
 27 28  2  0  0  0  0
 28 29  1  0  0  0  0
 29 30  2  0  0  0  0
M  END
>  <CHROM.1>
-167.98538788,-55.40422552,120.33731651,-70.96629307,-59.70745011,137.25053395
175.59821991,-169.13368450,-115.89513936,58.15014052,-67.29615268,-2.42537734
2.10969232,14.41573184,1.86336180,0.68028344,-0.75900013

>  <Name>
1uts_lig

>  <RI>
0

>  <Rbt.Current_Directory>
/home/itssahil/PROJECTS/Mol_Feturizer/New_Systems/rnas/1uts

>  <Rbt.Executable>
rbdock ($Id: //depot/dev/client3/rdock/2013.1/src/exe/rbdock.cxx#4 $)

>  <Rbt.Library>
libRbt.so (2013.1, Build901 2013/11/27)

>  <Rbt.Parameter_File>
/export/apps/rDock/src/rDock_2013.1_src/data/scripts/dock_solv.prm

>  <Rbt.Receptor>
prm/pocket_docking_7.prm

>  <SCORE>
-30.4396

>  <SCORE.INTER>
-32.1828

>  <SCORE.INTER.CONST>
1

>  <SCORE.INTER.POLAR>
-1.75611

>  <SCORE.INTER.ROT>
10

>  <SCORE.INTER.SOLV>
10.9864

>  <SCORE.INTER.VDW>
-29.5303

>  <SCORE.INTER.norm>
-1.07276

>  <SCORE.INTRA>
1.74327

>  <SCORE.INTRA.DIHEDRAL>
-1.52526

>  <SCORE.INTRA.DIHEDRAL.0>
18.0451

>  <SCORE.INTRA.POLAR>
0.196815

>  <SCORE.INTRA.POLAR.0>
-0.196815

>  <SCORE.INTRA.REPUL>
0

>  <SCORE.INTRA.REPUL.0>
0

>  <SCORE.INTRA.SOLV>
-0.260274

>  <SCORE.INTRA.SOLV.lig_0>
-14.7906

>  <SCORE.INTRA.VDW>
1.96686

>  <SCORE.INTRA.VDW.0>
-0.411701

>  <SCORE.INTRA.norm>
0.058109

>  <SCORE.RESTR>
0

>  <SCORE.RESTR.CAVITY>
0

>  <SCORE.RESTR.norm>
0

>  <SCORE.SYSTEM>
0

>  <SCORE.SYSTEM.CONST>
0

>  <SCORE.SYSTEM.DIHEDRAL>
0

>  <SCORE.SYSTEM.SOLV>
0

>  <SCORE.SYSTEM.norm>
0

>  <SCORE.heavy>
30

>  <SCORE.norm>
-1.01465

>  <RMSD>
9.846

$$$$
1uts_lig
 OpenBabel11021811413D
libRbt.so/2013.1/901 2013/11/27
 30 33  0  0  0  0  0  0  0  0999 V2000
   -2.0111    6.5307   11.9548 N   0  0  0  0  0  0  0  0  0  0  0  0
   -1.8528    4.1115   11.5554 C   0  0  0  0  0  0  0  0  0  0  0  0
   -3.9186    3.8795   15.8580 C   0  0  0  0  0  0  0  0  0  0  0  0
   -2.3771    3.7872   12.9572 C   0  0  0  0  0  0  0  0  0  0  0  0
   -1.9467    4.8043   13.8737 O   0  0  0  0  0  0  0  0  0  0  0  0
   -2.4616    5.4297   11.0738 C   0  0  0  0  0  0  0  0  0  0  0  0
   -4.5957    4.2334   17.1262 N   0  0  0  0  0  0  0  0  0  0  0  0
   -5.9978    4.6429   16.8480 C   0  0  0  0  0  0  0  0  0  0  0  0
   -6.8618    3.4015   16.6072 C   0  0  0  0  0  0  0  0  0  0  0  0
   -7.6373    3.5758   15.3585 N   0  0  0  0  0  0  0  0  0  0  0  0
   -8.9411    2.8630   15.4851 C   0  0  0  0  0  0  0  0  0  0  0  0
   -6.8564    3.0318   14.2118 C   0  0  0  0  0  0  0  0  0  0  0  0
   -9.7479    3.0386   14.1884 C   0  0  0  0  0  0  0  0  0  0  0  0
   -7.6649    3.2037   12.9132 C   0  0  0  0  0  0  0  0  0  0  0  0
   -8.9678    2.4935   13.0413 N   0  0  0  0  0  0  0  0  0  0  0  0
    0.3970    3.5043   16.5286 C   0  0  0  0  0  0  0  0  0  0  0  0
    1.2908    0.6412   22.2574 N   0  0  0  0  0  0  0  0  0  0  0  0
   -0.5174    3.0639   17.5151 C   0  0  0  0  0  0  0  0  0  0  0  0
   -1.9145    3.1888   17.2916 C   0  0  0  0  0  0  0  0  0  0  0  0
   -2.3977    3.7520   16.0787 C   0  0  0  0  0  0  0  0  0  0  0  0
   -1.4738    4.2105   15.0922 C   0  0  0  0  0  0  0  0  0  0  0  0
   -0.0764    4.0800   15.3201 C   0  0  0  0  0  0  0  0  0  0  0  0
    0.3781   -0.4380   22.2615 C   0  0  0  0  0  0  0  0  0  0  0  0
   -0.4976   -0.3632   21.1546 C   0  0  0  0  0  0  0  0  0  0  0  0
   -0.6296    1.3353   19.2411 C   0  0  0  0  0  0  0  0  0  0  0  0
   -0.0335    2.5109   18.7091 C   0  0  0  0  0  0  0  0  0  0  0  0
    1.0584    3.1206   19.3861 C   0  0  0  0  0  0  0  0  0  0  0  0
    1.5539    2.5539   20.5914 C   0  0  0  0  0  0  0  0  0  0  0  0
    0.9610    1.3633   21.1167 C   0  0  0  0  0  0  0  0  0  0  0  0
   -0.1197    0.7590   20.4486 C   0  0  0  0  0  0  0  0  0  0  0  0
  1  6  1  0  0  0  0
  2  4  1  0  0  0  0
  3  7  1  0  0  0  0
  4  5  1  0  0  0  0
  6  2  1  0  0  0  0
  7  8  1  0  0  0  0
  8  9  1  0  0  0  0
  9 10  1  0  0  0  0
 10 11  1  0  0  0  0
 10 12  1  0  0  0  0
 11 13  1  0  0  0  0
 13 15  1  0  0  0  0
 14 12  1  0  0  0  0
 15 14  1  0  0  0  0
 16 18  2  0  0  0  0
 16 22  1  0  0  0  0
 17 23  1  0  0  0  0
 17 29  1  0  0  0  0
 18 19  1  0  0  0  0
 18 26  1  0  0  0  0
 19 20  2  0  0  0  0
 20  3  1  0  0  0  0
 20 21  1  0  0  0  0
 21  5  1  0  0  0  0
 21 22  2  0  0  0  0
 23 24  2  0  0  0  0
 24 30  1  0  0  0  0
 25 26  2  0  0  0  0
 25 30  1  0  0  0  0
 26 27  1  0  0  0  0
 27 28  2  0  0  0  0
 28 29  1  0  0  0  0
 29 30  2  0  0  0  0
M  END
>  <CHROM.1>
-106.27072047,-63.17154578,167.65713433,-136.01361609,63.66897799,77.99115523
-130.11151243,-148.30809959,-136.06564972,37.16874696,-78.84473875,-2.94364564
3.14355692,16.39360878,-2.36609357,0.13296318,2.04222326

>  <Name>
1uts_lig

>  <RI>
0

>  <Rbt.Current_Directory>
/home/itssahil/PROJECTS/Mol_Feturizer/New_Systems/rnas/1uts

>  <Rbt.Executable>
rbdock ($Id: //depot/dev/client3/rdock/2013.1/src/exe/rbdock.cxx#4 $)

>  <Rbt.Library>
libRbt.so (2013.1, Build901 2013/11/27)

>  <Rbt.Parameter_File>
/export/apps/rDock/src/rDock_2013.1_src/data/scripts/dock_solv.prm

>  <Rbt.Receptor>
prm/pocket_docking_5.prm

>  <SCORE>
-32.8355

>  <SCORE.INTER>
-37.8784

>  <SCORE.INTER.CONST>
1

>  <SCORE.INTER.POLAR>
-3.64821

>  <SCORE.INTER.ROT>
10

>  <SCORE.INTER.SOLV>
9.54283

>  <SCORE.INTER.VDW>
-26.5392

>  <SCORE.INTER.norm>
-1.26261

>  <SCORE.INTRA>
5.04295

>  <SCORE.INTRA.DIHEDRAL>
7.00674

>  <SCORE.INTRA.DIHEDRAL.0>
18.0451

>  <SCORE.INTRA.POLAR>
0.0315911

>  <SCORE.INTRA.POLAR.0>
-0.196815

>  <SCORE.INTRA.REPUL>
0

>  <SCORE.INTRA.REPUL.0>
0

>  <SCORE.INTRA.SOLV>
0.0357825

>  <SCORE.INTRA.SOLV.lig_0>
-14.7906

>  <SCORE.INTRA.VDW>
1.41428

>  <SCORE.INTRA.VDW.0>
-0.411701

>  <SCORE.INTRA.norm>
0.168098

>  <SCORE.RESTR>
0

>  <SCORE.RESTR.CAVITY>
0

>  <SCORE.RESTR.norm>
0

>  <SCORE.SYSTEM>
0

>  <SCORE.SYSTEM.CONST>
0

>  <SCORE.SYSTEM.DIHEDRAL>
0

>  <SCORE.SYSTEM.SOLV>
0

>  <SCORE.SYSTEM.norm>
0

>  <SCORE.heavy>
30

>  <SCORE.norm>
-1.09452

>  <RMSD>
9.851

$$$$
1uts_lig
 OpenBabel11021811413D
libRbt.so/2013.1/901 2013/11/27
 30 33  0  0  0  0  0  0  0  0999 V2000
   -7.0596    3.7598   13.7923 N   0  0  0  0  0  0  0  0  0  0  0  0
   -5.6662    3.3362   15.7712 C   0  0  0  0  0  0  0  0  0  0  0  0
   -2.0791    4.0137   13.9718 C   0  0  0  0  0  0  0  0  0  0  0  0
   -4.2307    3.3593   16.3040 C   0  0  0  0  0  0  0  0  0  0  0  0
   -3.7435    4.7093   16.3014 O   0  0  0  0  0  0  0  0  0  0  0  0
   -5.6645    3.6826   14.2812 C   0  0  0  0  0  0  0  0  0  0  0  0
   -1.8087    5.0765   12.9771 N   0  0  0  0  0  0  0  0  0  0  0  0
   -1.8276    4.4975   11.6077 C   0  0  0  0  0  0  0  0  0  0  0  0
   -1.5528    5.5963   10.5770 C   0  0  0  0  0  0  0  0  0  0  0  0
   -1.0673    4.9828    9.3204 N   0  0  0  0  0  0  0  0  0  0  0  0
   -0.5803    6.0548    8.4052 C   0  0  0  0  0  0  0  0  0  0  0  0
   -2.1767    4.2189    8.6828 C   0  0  0  0  0  0  0  0  0  0  0  0
   -0.0788    5.4215    7.0973 C   0  0  0  0  0  0  0  0  0  0  0  0
   -1.6767    3.5874    7.3710 C   0  0  0  0  0  0  0  0  0  0  0  0
   -1.1882    4.6584    6.4584 N   0  0  0  0  0  0  0  0  0  0  0  0
   -0.3204    5.0761   17.8438 C   0  0  0  0  0  0  0  0  0  0  0  0
    6.0621    4.7511   17.6739 N   0  0  0  0  0  0  0  0  0  0  0  0
    0.5141    4.7306   16.7541 C   0  0  0  0  0  0  0  0  0  0  0  0
   -0.0624    4.3869   15.5022 C   0  0  0  0  0  0  0  0  0  0  0  0
   -1.4749    4.3918   15.3393 C   0  0  0  0  0  0  0  0  0  0  0  0
   -2.3150    4.7246   16.4441 C   0  0  0  0  0  0  0  0  0  0  0  0
   -1.7323    5.0708   17.6939 C   0  0  0  0  0  0  0  0  0  0  0  0
    6.0178    5.2389   18.9997 C   0  0  0  0  0  0  0  0  0  0  0  0
    4.6860    5.4878   19.4022 C   0  0  0  0  0  0  0  0  0  0  0  0
    2.4746    5.1652   18.1493 C   0  0  0  0  0  0  0  0  0  0  0  0
    1.9059    4.7267   16.9227 C   0  0  0  0  0  0  0  0  0  0  0  0
    2.7503    4.2777   15.8703 C   0  0  0  0  0  0  0  0  0  0  0  0
    4.1605    4.2655   16.0458 C   0  0  0  0  0  0  0  0  0  0  0  0
    4.7289    4.6942   17.2860 C   0  0  0  0  0  0  0  0  0  0  0  0
    3.8951    5.1393   18.3282 C   0  0  0  0  0  0  0  0  0  0  0  0
  1  6  1  0  0  0  0
  2  4  1  0  0  0  0
  3  7  1  0  0  0  0
  4  5  1  0  0  0  0
  6  2  1  0  0  0  0
  7  8  1  0  0  0  0
  8  9  1  0  0  0  0
  9 10  1  0  0  0  0
 10 11  1  0  0  0  0
 10 12  1  0  0  0  0
 11 13  1  0  0  0  0
 13 15  1  0  0  0  0
 14 12  1  0  0  0  0
 15 14  1  0  0  0  0
 16 18  2  0  0  0  0
 16 22  1  0  0  0  0
 17 23  1  0  0  0  0
 17 29  1  0  0  0  0
 18 19  1  0  0  0  0
 18 26  1  0  0  0  0
 19 20  2  0  0  0  0
 20  3  1  0  0  0  0
 20 21  1  0  0  0  0
 21  5  1  0  0  0  0
 21 22  2  0  0  0  0
 23 24  2  0  0  0  0
 24 30  1  0  0  0  0
 25 26  2  0  0  0  0
 25 30  1  0  0  0  0
 26 27  1  0  0  0  0
 27 28  2  0  0  0  0
 28 29  1  0  0  0  0
 29 30  2  0  0  0  0
M  END
>  <CHROM.1>
-175.27649760,68.47882564,154.98966751,-164.43990801,-175.76519641,179.80838630
158.64632421,-170.35635389,-4.77164202,-70.51120309,76.11029719,-0.46116141
4.62715664,14.19175820,2.21490210,-0.11781623,-1.52751037

>  <Name>
1uts_lig

>  <RI>
0

>  <Rbt.Current_Directory>
/home/itssahil/PROJECTS/Mol_Feturizer/New_Systems/rnas/1uts

>  <Rbt.Executable>
rbdock ($Id: //depot/dev/client3/rdock/2013.1/src/exe/rbdock.cxx#4 $)

>  <Rbt.Library>
libRbt.so (2013.1, Build901 2013/11/27)

>  <Rbt.Parameter_File>
/export/apps/rDock/src/rDock_2013.1_src/data/scripts/dock_solv.prm

>  <Rbt.Receptor>
prm/pocket_docking_7.prm

>  <SCORE>
-50.0456

>  <SCORE.INTER>
-47.8503

>  <SCORE.INTER.CONST>
1

>  <SCORE.INTER.POLAR>
-3.97288

>  <SCORE.INTER.ROT>
10

>  <SCORE.INTER.SOLV>
10.0541

>  <SCORE.INTER.VDW>
-32.2753

>  <SCORE.INTER.norm>
-1.59501

>  <SCORE.INTRA>
-2.19533

>  <SCORE.INTRA.DIHEDRAL>
-8.15334

>  <SCORE.INTRA.DIHEDRAL.0>
18.0451

>  <SCORE.INTRA.POLAR>
0.196815

>  <SCORE.INTRA.POLAR.0>
-0.196815

>  <SCORE.INTRA.REPUL>
0

>  <SCORE.INTRA.REPUL.0>
0

>  <SCORE.INTRA.SOLV>
-0.550762

>  <SCORE.INTRA.SOLV.lig_0>
-14.7906

>  <SCORE.INTRA.VDW>
1.48755

>  <SCORE.INTRA.VDW.0>
-0.411701

>  <SCORE.INTRA.norm>
-0.0731777

>  <SCORE.RESTR>
0

>  <SCORE.RESTR.CAVITY>
0

>  <SCORE.RESTR.norm>
0

>  <SCORE.SYSTEM>
0

>  <SCORE.SYSTEM.CONST>
0

>  <SCORE.SYSTEM.DIHEDRAL>
0

>  <SCORE.SYSTEM.SOLV>
0

>  <SCORE.SYSTEM.norm>
0

>  <SCORE.heavy>
30

>  <SCORE.norm>
-1.66819

>  <RMSD>
9.852

$$$$
1uts_lig
 OpenBabel11021811413D
libRbt.so/2013.1/901 2013/11/27
 30 33  0  0  0  0  0  0  0  0999 V2000
   -1.6257    4.1050   11.1888 N   0  0  0  0  0  0  0  0  0  0  0  0
   -2.2916    4.5938   13.5028 C   0  0  0  0  0  0  0  0  0  0  0  0
   -1.0953    2.4537   18.0586 C   0  0  0  0  0  0  0  0  0  0  0  0
   -0.9698    4.4661   14.2656 C   0  0  0  0  0  0  0  0  0  0  0  0
   -1.1080    3.4759   15.2952 O   0  0  0  0  0  0  0  0  0  0  0  0
   -2.3314    3.5640   12.3723 C   0  0  0  0  0  0  0  0  0  0  0  0
   -2.0984    3.5166   17.8217 N   0  0  0  0  0  0  0  0  0  0  0  0
   -3.4128    2.9016   17.4974 C   0  0  0  0  0  0  0  0  0  0  0  0
   -4.4562    3.9994   17.2700 C   0  0  0  0  0  0  0  0  0  0  0  0
   -5.6064    3.4391   16.5256 N   0  0  0  0  0  0  0  0  0  0  0  0
   -5.3569    3.5716   15.0613 C   0  0  0  0  0  0  0  0  0  0  0  0
   -6.8470    4.1699   16.9100 C   0  0  0  0  0  0  0  0  0  0  0  0
   -6.5514    2.9942   14.2849 C   0  0  0  0  0  0  0  0  0  0  0  0
   -8.0433    3.5951   16.1303 C   0  0  0  0  0  0  0  0  0  0  0  0
   -7.7923    3.7255   14.6680 N   0  0  0  0  0  0  0  0  0  0  0  0
    2.6143    3.3063   15.8846 C   0  0  0  0  0  0  0  0  0  0  0  0
    7.5275    2.0208   19.9211 N   0  0  0  0  0  0  0  0  0  0  0  0
    2.6635    2.8332   17.2176 C   0  0  0  0  0  0  0  0  0  0  0  0
    1.4576    2.5593   17.9165 C   0  0  0  0  0  0  0  0  0  0  0  0
    0.2012    2.7559   17.2803 C   0  0  0  0  0  0  0  0  0  0  0  0
    0.1536    3.2486   15.9416 C   0  0  0  0  0  0  0  0  0  0  0  0
    1.3640    3.5181   15.2459 C   0  0  0  0  0  0  0  0  0  0  0  0
    6.9985    2.0039   21.2316 C   0  0  0  0  0  0  0  0  0  0  0  0
    5.6006    2.2118   21.2149 C   0  0  0  0  0  0  0  0  0  0  0  0
    3.9872    2.5604   19.2554 C   0  0  0  0  0  0  0  0  0  0  0  0
    3.9059    2.6431   17.8388 C   0  0  0  0  0  0  0  0  0  0  0  0
    5.0853    2.5259   17.0530 C   0  0  0  0  0  0  0  0  0  0  0  0
    6.3429    2.3241   17.6833 C   0  0  0  0  0  0  0  0  0  0  0  0
    6.4196    2.2273   19.1080 C   0  0  0  0  0  0  0  0  0  0  0  0
    5.2539    2.3437   19.8871 C   0  0  0  0  0  0  0  0  0  0  0  0
  1  6  1  0  0  0  0
  2  4  1  0  0  0  0
  3  7  1  0  0  0  0
  4  5  1  0  0  0  0
  6  2  1  0  0  0  0
  7  8  1  0  0  0  0
  8  9  1  0  0  0  0
  9 10  1  0  0  0  0
 10 11  1  0  0  0  0
 10 12  1  0  0  0  0
 11 13  1  0  0  0  0
 13 15  1  0  0  0  0
 14 12  1  0  0  0  0
 15 14  1  0  0  0  0
 16 18  2  0  0  0  0
 16 22  1  0  0  0  0
 17 23  1  0  0  0  0
 17 29  1  0  0  0  0
 18 19  1  0  0  0  0
 18 26  1  0  0  0  0
 19 20  2  0  0  0  0
 20  3  1  0  0  0  0
 20 21  1  0  0  0  0
 21  5  1  0  0  0  0
 21 22  2  0  0  0  0
 23 24  2  0  0  0  0
 24 30  1  0  0  0  0
 25 26  2  0  0  0  0
 25 30  1  0  0  0  0
 26 27  1  0  0  0  0
 27 28  2  0  0  0  0
 28 29  1  0  0  0  0
 29 30  2  0  0  0  0
M  END
>  <CHROM.1>
-136.65951516,-86.91949806,132.55293209,174.59603283,-83.93672743,179.26588143
161.29781876,-89.07448071,161.28285744,137.12559784,154.83766888,-0.23185842
3.15900242,16.67467979,-2.77888495,-0.06023272,1.73949942

>  <Name>
1uts_lig

>  <RI>
0

>  <Rbt.Current_Directory>
/home/itssahil/PROJECTS/Mol_Feturizer/New_Systems/rnas/1uts

>  <Rbt.Executable>
rbdock ($Id: //depot/dev/client3/rdock/2013.1/src/exe/rbdock.cxx#4 $)

>  <Rbt.Library>
libRbt.so (2013.1, Build901 2013/11/27)

>  <Rbt.Parameter_File>
/export/apps/rDock/src/rDock_2013.1_src/data/scripts/dock_solv.prm

>  <Rbt.Receptor>
prm/pocket_docking_5.prm

>  <SCORE>
-19.8279

>  <SCORE.INTER>
-21.3043

>  <SCORE.INTER.CONST>
1

>  <SCORE.INTER.POLAR>
-1.93808

>  <SCORE.INTER.ROT>
10

>  <SCORE.INTER.SOLV>
7.67238

>  <SCORE.INTER.VDW>
-20.5667

>  <SCORE.INTER.norm>
-0.710142

>  <SCORE.INTRA>
1.47633

>  <SCORE.INTRA.DIHEDRAL>
-2.45086

>  <SCORE.INTRA.DIHEDRAL.0>
18.0451

>  <SCORE.INTRA.POLAR>
-0.203499

>  <SCORE.INTRA.POLAR.0>
-0.196815

>  <SCORE.INTRA.REPUL>
0

>  <SCORE.INTRA.REPUL.0>
0

>  <SCORE.INTRA.SOLV>
-0.0754976

>  <SCORE.INTRA.SOLV.lig_0>
-14.7906

>  <SCORE.INTRA.VDW>
3.43141

>  <SCORE.INTRA.VDW.0>
-0.411701

>  <SCORE.INTRA.norm>
0.049211

>  <SCORE.RESTR>
0

>  <SCORE.RESTR.CAVITY>
0

>  <SCORE.RESTR.norm>
0

>  <SCORE.SYSTEM>
0

>  <SCORE.SYSTEM.CONST>
0

>  <SCORE.SYSTEM.DIHEDRAL>
0

>  <SCORE.SYSTEM.SOLV>
0

>  <SCORE.SYSTEM.norm>
0

>  <SCORE.heavy>
30

>  <SCORE.norm>
-0.660931

>  <RMSD>
9.858

$$$$
1uts_lig
 OpenBabel11021811413D
libRbt.so/2013.1/901 2013/11/27
 30 33  0  0  0  0  0  0  0  0999 V2000
   -2.3409    7.3432   11.7103 N   0  0  0  0  0  0  0  0  0  0  0  0
   -2.6138    4.9207   12.0172 C   0  0  0  0  0  0  0  0  0  0  0  0
   -2.6757    2.2621   15.2713 C   0  0  0  0  0  0  0  0  0  0  0  0
   -1.7375    3.9966   12.8676 C   0  0  0  0  0  0  0  0  0  0  0  0
   -1.4113    4.6526   14.1018 O   0  0  0  0  0  0  0  0  0  0  0  0
   -1.7489    6.0220   11.4014 C   0  0  0  0  0  0  0  0  0  0  0  0
   -3.4880    2.5673   16.4709 N   0  0  0  0  0  0  0  0  0  0  0  0
   -4.8989    2.1602   16.2374 C   0  0  0  0  0  0  0  0  0  0  0  0
   -5.6638    3.3047   15.5662 C   0  0  0  0  0  0  0  0  0  0  0  0
   -6.7638    2.7483   14.7469 N   0  0  0  0  0  0  0  0  0  0  0  0
   -6.9470    3.5915   13.5306 C   0  0  0  0  0  0  0  0  0  0  0  0
   -8.0162    2.7209   15.5542 C   0  0  0  0  0  0  0  0  0  0  0  0
   -8.0915    3.0187   12.6790 C   0  0  0  0  0  0  0  0  0  0  0  0
   -9.1638    2.1510   14.7012 C   0  0  0  0  0  0  0  0  0  0  0  0
   -9.3446    2.9922   13.4855 N   0  0  0  0  0  0  0  0  0  0  0  0
    1.5306    3.2540   16.0046 C   0  0  0  0  0  0  0  0  0  0  0  0
    4.0917   -1.3409   19.7490 N   0  0  0  0  0  0  0  0  0  0  0  0
    0.9561    2.1056   16.5999 C   0  0  0  0  0  0  0  0  0  0  0  0
   -0.4077    1.7903   16.3585 C   0  0  0  0  0  0  0  0  0  0  0  0
   -1.1969    2.6227   15.5182 C   0  0  0  0  0  0  0  0  0  0  0  0
   -0.6200    3.7891   14.9320 C   0  0  0  0  0  0  0  0  0  0  0  0
    0.7465    4.0981   15.1747 C   0  0  0  0  0  0  0  0  0  0  0  0
    3.8816   -2.5130   18.9877 C   0  0  0  0  0  0  0  0  0  0  0  0
    3.0213   -2.2587   17.8956 C   0  0  0  0  0  0  0  0  0  0  0  0
    1.8862   -0.0921   17.1329 C   0  0  0  0  0  0  0  0  0  0  0  0
    1.7400    1.2905   17.4285 C   0  0  0  0  0  0  0  0  0  0  0  0
    2.3956    1.8464   18.5614 C   0  0  0  0  0  0  0  0  0  0  0  0
    3.1975    1.0209   19.3952 C   0  0  0  0  0  0  0  0  0  0  0  0
    3.3539   -0.3668   19.0872 C   0  0  0  0  0  0  0  0  0  0  0  0
    2.7055   -0.9186   17.9672 C   0  0  0  0  0  0  0  0  0  0  0  0
  1  6  1  0  0  0  0
  2  4  1  0  0  0  0
  3  7  1  0  0  0  0
  4  5  1  0  0  0  0
  6  2  1  0  0  0  0
  7  8  1  0  0  0  0
  8  9  1  0  0  0  0
  9 10  1  0  0  0  0
 10 11  1  0  0  0  0
 10 12  1  0  0  0  0
 11 13  1  0  0  0  0
 13 15  1  0  0  0  0
 14 12  1  0  0  0  0
 15 14  1  0  0  0  0
 16 18  2  0  0  0  0
 16 22  1  0  0  0  0
 17 23  1  0  0  0  0
 17 29  1  0  0  0  0
 18 19  1  0  0  0  0
 18 26  1  0  0  0  0
 19 20  2  0  0  0  0
 20  3  1  0  0  0  0
 20 21  1  0  0  0  0
 21  5  1  0  0  0  0
 21 22  2  0  0  0  0
 23 24  2  0  0  0  0
 24 30  1  0  0  0  0
 25 26  2  0  0  0  0
 25 30  1  0  0  0  0
 26 27  1  0  0  0  0
 27 28  2  0  0  0  0
 28 29  1  0  0  0  0
 29 30  2  0  0  0  0
M  END
>  <CHROM.1>
-88.32108641,75.51621900,-177.58858422,178.40200670,-127.44418748,-87.35346970
151.85556382,-145.26240920,-123.27133285,74.07124927,-69.12074012,-1.78980027
2.39373605,15.60178052,-2.58666510,0.10429062,2.42715562

>  <Name>
1uts_lig

>  <RI>
0

>  <Rbt.Current_Directory>
/home/itssahil/PROJECTS/Mol_Feturizer/New_Systems/rnas/1uts

>  <Rbt.Executable>
rbdock ($Id: //depot/dev/client3/rdock/2013.1/src/exe/rbdock.cxx#4 $)

>  <Rbt.Library>
libRbt.so (2013.1, Build901 2013/11/27)

>  <Rbt.Parameter_File>
/export/apps/rDock/src/rDock_2013.1_src/data/scripts/dock_solv.prm

>  <Rbt.Receptor>
prm/pocket_docking_4.prm

>  <SCORE>
-32.4487

>  <SCORE.INTER>
-35.2034

>  <SCORE.INTER.CONST>
1

>  <SCORE.INTER.POLAR>
-2.96513

>  <SCORE.INTER.ROT>
10

>  <SCORE.INTER.SOLV>
9.48534

>  <SCORE.INTER.VDW>
-27.0136

>  <SCORE.INTER.norm>
-1.17345

>  <SCORE.INTRA>
2.75473

>  <SCORE.INTRA.DIHEDRAL>
4.30215

>  <SCORE.INTRA.DIHEDRAL.0>
18.0451

>  <SCORE.INTRA.POLAR>
0.196815

>  <SCORE.INTRA.POLAR.0>
-0.196815

>  <SCORE.INTRA.REPUL>
0

>  <SCORE.INTRA.REPUL.0>
0

>  <SCORE.INTRA.SOLV>
-0.431808

>  <SCORE.INTRA.SOLV.lig_0>
-14.7906

>  <SCORE.INTRA.VDW>
0.150389

>  <SCORE.INTRA.VDW.0>
-0.411701

>  <SCORE.INTRA.norm>
0.0918243

>  <SCORE.RESTR>
0

>  <SCORE.RESTR.CAVITY>
0

>  <SCORE.RESTR.norm>
0

>  <SCORE.SYSTEM>
0

>  <SCORE.SYSTEM.CONST>
0

>  <SCORE.SYSTEM.DIHEDRAL>
0

>  <SCORE.SYSTEM.SOLV>
0

>  <SCORE.SYSTEM.norm>
0

>  <SCORE.heavy>
30

>  <SCORE.norm>
-1.08162

>  <RMSD>
9.863

$$$$
1uts_lig
 OpenBabel11021811413D
libRbt.so/2013.1/901 2013/11/27
 30 33  0  0  0  0  0  0  0  0999 V2000
   -9.3137    3.0994   13.4391 N   0  0  0  0  0  0  0  0  0  0  0  0
   -7.0697    3.4893   14.3608 C   0  0  0  0  0  0  0  0  0  0  0  0
   -1.9495    4.2582   14.7842 C   0  0  0  0  0  0  0  0  0  0  0  0
   -5.5736    3.4749   14.0341 C   0  0  0  0  0  0  0  0  0  0  0  0
   -4.8245    3.7820   15.2191 O   0  0  0  0  0  0  0  0  0  0  0  0
   -7.8686    3.0913   13.1184 C   0  0  0  0  0  0  0  0  0  0  0  0
   -1.3312    4.0740   13.4516 N   0  0  0  0  0  0  0  0  0  0  0  0
   -2.3780    3.7128   12.4593 C   0  0  0  0  0  0  0  0  0  0  0  0
   -1.8234    3.8713   11.0406 C   0  0  0  0  0  0  0  0  0  0  0  0
   -1.5476    5.3013   10.7764 N   0  0  0  0  0  0  0  0  0  0  0  0
   -2.7905    6.0930   11.0051 C   0  0  0  0  0  0  0  0  0  0  0  0
   -1.0794    5.4628    9.3708 C   0  0  0  0  0  0  0  0  0  0  0  0
   -2.5088    7.5786   10.7279 C   0  0  0  0  0  0  0  0  0  0  0  0
   -0.8006    6.9506    9.0909 C   0  0  0  0  0  0  0  0  0  0  0  0
   -2.0417    7.7408    9.3219 N   0  0  0  0  0  0  0  0  0  0  0  0
   -3.4651    0.4266   16.2797 C   0  0  0  0  0  0  0  0  0  0  0  0
    1.3856   -3.7357   16.9374 N   0  0  0  0  0  0  0  0  0  0  0  0
   -2.0777    0.6089   16.0672 C   0  0  0  0  0  0  0  0  0  0  0  0
   -1.5933    1.8529   15.5820 C   0  0  0  0  0  0  0  0  0  0  0  0
   -2.4973    2.9168   15.3119 C   0  0  0  0  0  0  0  0  0  0  0  0
   -3.8976    2.7254   15.5114 C   0  0  0  0  0  0  0  0  0  0  0  0
   -4.3763    1.4790   16.0002 C   0  0  0  0  0  0  0  0  0  0  0  0
    0.7921   -4.6211   16.0092 C   0  0  0  0  0  0  0  0  0  0  0  0
   -0.3229   -4.0215   15.3808 C   0  0  0  0  0  0  0  0  0  0  0  0
   -1.3345   -1.6832   15.6507 C   0  0  0  0  0  0  0  0  0  0  0  0
   -1.1926   -0.4450   16.3343 C   0  0  0  0  0  0  0  0  0  0  0  0
   -0.1478   -0.2753   17.2839 C   0  0  0  0  0  0  0  0  0  0  0  0
    0.7543   -1.3414   17.5470 C   0  0  0  0  0  0  0  0  0  0  0  0
    0.6175   -2.5811   16.8475 C   0  0  0  0  0  0  0  0  0  0  0  0
   -0.4160   -2.7511   15.9081 C   0  0  0  0  0  0  0  0  0  0  0  0
  1  6  1  0  0  0  0
  2  4  1  0  0  0  0
  3  7  1  0  0  0  0
  4  5  1  0  0  0  0
  6  2  1  0  0  0  0
  7  8  1  0  0  0  0
  8  9  1  0  0  0  0
  9 10  1  0  0  0  0
 10 11  1  0  0  0  0
 10 12  1  0  0  0  0
 11 13  1  0  0  0  0
 13 15  1  0  0  0  0
 14 12  1  0  0  0  0
 15 14  1  0  0  0  0
 16 18  2  0  0  0  0
 16 22  1  0  0  0  0
 17 23  1  0  0  0  0
 17 29  1  0  0  0  0
 18 19  1  0  0  0  0
 18 26  1  0  0  0  0
 19 20  2  0  0  0  0
 20  3  1  0  0  0  0
 20 21  1  0  0  0  0
 21  5  1  0  0  0  0
 21 22  2  0  0  0  0
 23 24  2  0  0  0  0
 24 30  1  0  0  0  0
 25 26  2  0  0  0  0
 25 30  1  0  0  0  0
 26 27  1  0  0  0  0
 27 28  2  0  0  0  0
 28 29  1  0  0  0  0
 29 30  2  0  0  0  0
M  END
>  <CHROM.1>
-53.14792305,-177.08024519,66.61746837,122.78170132,179.71035704,165.59909600
-66.11609974,-55.91298370,59.29402169,63.99990146,107.96827817,-2.44348951
2.18489009,14.03986064,1.89204555,0.23767635,-0.66208503

>  <Name>
1uts_lig

>  <RI>
0

>  <Rbt.Current_Directory>
/home/itssahil/PROJECTS/Mol_Feturizer/New_Systems/rnas/1uts

>  <Rbt.Executable>
rbdock ($Id: //depot/dev/client3/rdock/2013.1/src/exe/rbdock.cxx#4 $)

>  <Rbt.Library>
libRbt.so (2013.1, Build901 2013/11/27)

>  <Rbt.Parameter_File>
/export/apps/rDock/src/rDock_2013.1_src/data/scripts/dock_solv.prm

>  <Rbt.Receptor>
prm/pocket_docking_8.prm

>  <SCORE>
-39.8172

>  <SCORE.INTER>
-40.6958

>  <SCORE.INTER.CONST>
1

>  <SCORE.INTER.POLAR>
-2.60452

>  <SCORE.INTER.ROT>
10

>  <SCORE.INTER.SOLV>
12.2277

>  <SCORE.INTER.VDW>
-32.7914

>  <SCORE.INTER.norm>
-1.35653

>  <SCORE.INTRA>
0.878585

>  <SCORE.INTRA.DIHEDRAL>
-1.37102

>  <SCORE.INTRA.DIHEDRAL.0>
18.0451

>  <SCORE.INTRA.POLAR>
0.196815

>  <SCORE.INTRA.POLAR.0>
-0.196815

>  <SCORE.INTRA.REPUL>
0

>  <SCORE.INTRA.REPUL.0>
0

>  <SCORE.INTRA.SOLV>
-0.313714

>  <SCORE.INTRA.SOLV.lig_0>
-14.7906

>  <SCORE.INTRA.VDW>
1.05178

>  <SCORE.INTRA.VDW.0>
-0.411701

>  <SCORE.INTRA.norm>
0.0292862

>  <SCORE.RESTR>
0

>  <SCORE.RESTR.CAVITY>
0

>  <SCORE.RESTR.norm>
0

>  <SCORE.SYSTEM>
0

>  <SCORE.SYSTEM.CONST>
0

>  <SCORE.SYSTEM.DIHEDRAL>
0

>  <SCORE.SYSTEM.SOLV>
0

>  <SCORE.SYSTEM.norm>
0

>  <SCORE.heavy>
30

>  <SCORE.norm>
-1.32724

>  <RMSD>
9.885

$$$$
1uts_lig
 OpenBabel11021811413D
libRbt.so/2013.1/901 2013/11/27
 30 33  0  0  0  0  0  0  0  0999 V2000
   -3.9189   -1.8423   17.6932 N   0  0  0  0  0  0  0  0  0  0  0  0
   -2.2174   -0.4732   16.5672 C   0  0  0  0  0  0  0  0  0  0  0  0
   -0.6722    3.8011   14.8095 C   0  0  0  0  0  0  0  0  0  0  0  0
   -0.9944    0.4205   16.7929 C   0  0  0  0  0  0  0  0  0  0  0  0
   -0.5512    0.9478   15.5338 O   0  0  0  0  0  0  0  0  0  0  0  0
   -2.7266   -0.9928   17.9129 C   0  0  0  0  0  0  0  0  0  0  0  0
   -1.2877    2.9328   13.7803 N   0  0  0  0  0  0  0  0  0  0  0  0
   -2.2668    3.7180   12.9829 C   0  0  0  0  0  0  0  0  0  0  0  0
   -1.5262    4.7335   12.1078 C   0  0  0  0  0  0  0  0  0  0  0  0
   -2.5053    5.6473   11.4775 N   0  0  0  0  0  0  0  0  0  0  0  0
   -3.3410    4.8811   10.5086 C   0  0  0  0  0  0  0  0  0  0  0  0
   -1.7785    6.7466   10.7818 C   0  0  0  0  0  0  0  0  0  0  0  0
   -4.3567    5.8279    9.8490 C   0  0  0  0  0  0  0  0  0  0  0  0
   -2.7946    7.6933   10.1177 C   0  0  0  0  0  0  0  0  0  0  0  0
   -3.6303    6.9269    9.1520 N   0  0  0  0  0  0  0  0  0  0  0  0
    2.9739    1.9674   16.4088 C   0  0  0  0  0  0  0  0  0  0  0  0
    7.5704    6.5319   16.4972 N   0  0  0  0  0  0  0  0  0  0  0  0
    2.9625    3.3381   16.0561 C   0  0  0  0  0  0  0  0  0  0  0  0
    1.7778    3.9259   15.5380 C   0  0  0  0  0  0  0  0  0  0  0  0
    0.6022    3.1426   15.3753 C   0  0  0  0  0  0  0  0  0  0  0  0
    0.6207    1.7568   15.7163 C   0  0  0  0  0  0  0  0  0  0  0  0
    1.8086    1.1746   16.2374 C   0  0  0  0  0  0  0  0  0  0  0  0
    7.5141    7.0997   15.2041 C   0  0  0  0  0  0  0  0  0  0  0  0
    6.4110    6.5954   14.4785 C   0  0  0  0  0  0  0  0  0  0  0  0
    4.5921    4.9221   15.1534 C   0  0  0  0  0  0  0  0  0  0  0  0
    4.1258    4.1037   16.2179 C   0  0  0  0  0  0  0  0  0  0  0  0
    4.8371    4.0682   17.4487 C   0  0  0  0  0  0  0  0  0  0  0  0
    6.0111    4.8518   17.6146 C   0  0  0  0  0  0  0  0  0  0  0  0
    6.4698    5.6848   16.5466 C   0  0  0  0  0  0  0  0  0  0  0  0
    5.7677    5.7207   15.3280 C   0  0  0  0  0  0  0  0  0  0  0  0
  1  6  1  0  0  0  0
  2  4  1  0  0  0  0
  3  7  1  0  0  0  0
  4  5  1  0  0  0  0
  6  2  1  0  0  0  0
  7  8  1  0  0  0  0
  8  9  1  0  0  0  0
  9 10  1  0  0  0  0
 10 11  1  0  0  0  0
 10 12  1  0  0  0  0
 11 13  1  0  0  0  0
 13 15  1  0  0  0  0
 14 12  1  0  0  0  0
 15 14  1  0  0  0  0
 16 18  2  0  0  0  0
 16 22  1  0  0  0  0
 17 23  1  0  0  0  0
 17 29  1  0  0  0  0
 18 19  1  0  0  0  0
 18 26  1  0  0  0  0
 19 20  2  0  0  0  0
 20  3  1  0  0  0  0
 20 21  1  0  0  0  0
 21  5  1  0  0  0  0
 21 22  2  0  0  0  0
 23 24  2  0  0  0  0
 24 30  1  0  0  0  0
 25 26  2  0  0  0  0
 25 30  1  0  0  0  0
 26 27  1  0  0  0  0
 27 28  2  0  0  0  0
 28 29  1  0  0  0  0
 29 30  2  0  0  0  0
M  END
>  <CHROM.1>
179.88482701,-177.77008779,-164.17022835,-178.23531670,179.28496962,69.75643625
-171.35972332,-66.82458247,131.06929090,134.78136677,-118.53895258,0.77151382
3.81299834,14.59286577,2.95260953,-0.39391719,-0.73536613

>  <Name>
1uts_lig

>  <RI>
0

>  <Rbt.Current_Directory>
/home/itssahil/PROJECTS/Mol_Feturizer/New_Systems/rnas/1uts

>  <Rbt.Executable>
rbdock ($Id: //depot/dev/client3/rdock/2013.1/src/exe/rbdock.cxx#4 $)

>  <Rbt.Library>
libRbt.so (2013.1, Build901 2013/11/27)

>  <Rbt.Parameter_File>
/export/apps/rDock/src/rDock_2013.1_src/data/scripts/dock_solv.prm

>  <Rbt.Receptor>
prm/pocket_docking_7.prm

>  <SCORE>
-37.184

>  <SCORE.INTER>
-33.1728

>  <SCORE.INTER.CONST>
1

>  <SCORE.INTER.POLAR>
-1.70759

>  <SCORE.INTER.ROT>
10

>  <SCORE.INTER.SOLV>
9.0588

>  <SCORE.INTER.VDW>
-29.7095

>  <SCORE.INTER.norm>
-1.10576

>  <SCORE.INTRA>
-4.01118

>  <SCORE.INTRA.DIHEDRAL>
-9.64291

>  <SCORE.INTRA.DIHEDRAL.0>
18.0451

>  <SCORE.INTRA.POLAR>
-0.115126

>  <SCORE.INTRA.POLAR.0>
-0.196815

>  <SCORE.INTRA.REPUL>
0

>  <SCORE.INTRA.REPUL.0>
0

>  <SCORE.INTRA.SOLV>
-0.361001

>  <SCORE.INTRA.SOLV.lig_0>
-14.7906

>  <SCORE.INTRA.VDW>
1.3822

>  <SCORE.INTRA.VDW.0>
-0.411701

>  <SCORE.INTRA.norm>
-0.133706

>  <SCORE.RESTR>
0

>  <SCORE.RESTR.CAVITY>
0

>  <SCORE.RESTR.norm>
0

>  <SCORE.SYSTEM>
0

>  <SCORE.SYSTEM.CONST>
0

>  <SCORE.SYSTEM.DIHEDRAL>
0

>  <SCORE.SYSTEM.SOLV>
0

>  <SCORE.SYSTEM.norm>
0

>  <SCORE.heavy>
30

>  <SCORE.norm>
-1.23947

>  <RMSD>
9.888

$$$$
1uts_lig
 OpenBabel11021811413D
libRbt.so/2013.1/901 2013/11/27
 30 33  0  0  0  0  0  0  0  0999 V2000
   -6.5082    4.1001   14.6642 N   0  0  0  0  0  0  0  0  0  0  0  0
   -6.4404    4.0827   17.1202 C   0  0  0  0  0  0  0  0  0  0  0  0
   -2.4585    4.0171   14.0285 C   0  0  0  0  0  0  0  0  0  0  0  0
   -4.9235    3.9955   17.3120 C   0  0  0  0  0  0  0  0  0  0  0  0
   -4.2678    4.7042   16.2501 O   0  0  0  0  0  0  0  0  0  0  0  0
   -6.8431    3.3041   15.8665 C   0  0  0  0  0  0  0  0  0  0  0  0
   -2.0087    4.9973   13.0142 N   0  0  0  0  0  0  0  0  0  0  0  0
   -2.3948    4.5271   11.6574 C   0  0  0  0  0  0  0  0  0  0  0  0
   -1.2426    4.7695   10.6780 C   0  0  0  0  0  0  0  0  0  0  0  0
   -1.6855    5.7025    9.6177 N   0  0  0  0  0  0  0  0  0  0  0  0
   -0.5719    5.9097    8.6476 C   0  0  0  0  0  0  0  0  0  0  0  0
   -2.0852    6.9986   10.2352 C   0  0  0  0  0  0  0  0  0  0  0  0
   -1.0270    6.8815    7.5468 C   0  0  0  0  0  0  0  0  0  0  0  0
   -2.5375    7.9737    9.1334 C   0  0  0  0  0  0  0  0  0  0  0  0
   -1.4257    8.1783    8.1637 N   0  0  0  0  0  0  0  0  0  0  0  0
   -0.9476    5.1362   17.9882 C   0  0  0  0  0  0  0  0  0  0  0  0
    5.5265    4.8821   17.7112 N   0  0  0  0  0  0  0  0  0  0  0  0
   -0.0452    4.7955   16.9524 C   0  0  0  0  0  0  0  0  0  0  0  0
   -0.5415    4.4334   15.6717 C   0  0  0  0  0  0  0  0  0  0  0  0
   -1.9419    4.4149   15.4259 C   0  0  0  0  0  0  0  0  0  0  0  0
   -2.8507    4.7429   16.4764 C   0  0  0  0  0  0  0  0  0  0  0  0
   -2.3480    5.1077   17.7554 C   0  0  0  0  0  0  0  0  0  0  0  0
    5.8901    4.6509   16.3651 C   0  0  0  0  0  0  0  0  0  0  0  0
    4.7444    4.4971   15.5517 C   0  0  0  0  0  0  0  0  0  0  0  0
    2.2528    4.6061   16.1383 C   0  0  0  0  0  0  0  0  0  0  0  0
    1.3342    4.8146   17.2027 C   0  0  0  0  0  0  0  0  0  0  0  0
    1.8166    5.0492   18.5197 C   0  0  0  0  0  0  0  0  0  0  0  0
    3.2151    5.0775   18.7704 C   0  0  0  0  0  0  0  0  0  0  0  0
    4.1370    4.8812   17.6949 C   0  0  0  0  0  0  0  0  0  0  0  0
    3.6616    4.6483   16.3914 C   0  0  0  0  0  0  0  0  0  0  0  0
  1  6  1  0  0  0  0
  2  4  1  0  0  0  0
  3  7  1  0  0  0  0
  4  5  1  0  0  0  0
  6  2  1  0  0  0  0
  7  8  1  0  0  0  0
  8  9  1  0  0  0  0
  9 10  1  0  0  0  0
 10 11  1  0  0  0  0
 10 12  1  0  0  0  0
 11 13  1  0  0  0  0
 13 15  1  0  0  0  0
 14 12  1  0  0  0  0
 15 14  1  0  0  0  0
 16 18  2  0  0  0  0
 16 22  1  0  0  0  0
 17 23  1  0  0  0  0
 17 29  1  0  0  0  0
 18 19  1  0  0  0  0
 18 26  1  0  0  0  0
 19 20  2  0  0  0  0
 20  3  1  0  0  0  0
 20 21  1  0  0  0  0
 21  5  1  0  0  0  0
 21 22  2  0  0  0  0
 23 24  2  0  0  0  0
 24 30  1  0  0  0  0
 25 26  2  0  0  0  0
 25 30  1  0  0  0  0
 26 27  1  0  0  0  0
 27 28  2  0  0  0  0
 28 29  1  0  0  0  0
 29 30  2  0  0  0  0
M  END
>  <CHROM.1>
172.73221793,67.11520910,174.22563408,174.60880752,-76.80241793,-137.91131896
-118.20949259,-178.62097512,-173.68372224,-63.86045123,132.47433183,-0.89559343
5.09050782,14.47202236,2.29215012,-0.09226666,-1.31335589

>  <Name>
1uts_lig

>  <RI>
0

>  <Rbt.Current_Directory>
/home/itssahil/PROJECTS/Mol_Feturizer/New_Systems/rnas/1uts

>  <Rbt.Executable>
rbdock ($Id: //depot/dev/client3/rdock/2013.1/src/exe/rbdock.cxx#4 $)

>  <Rbt.Library>
libRbt.so (2013.1, Build901 2013/11/27)

>  <Rbt.Parameter_File>
/export/apps/rDock/src/rDock_2013.1_src/data/scripts/dock_solv.prm

>  <Rbt.Receptor>
prm/pocket_docking_8.prm

>  <SCORE>
-49.7533

>  <SCORE.INTER>
-49.3246

>  <SCORE.INTER.CONST>
1

>  <SCORE.INTER.POLAR>
-3.76809

>  <SCORE.INTER.ROT>
10

>  <SCORE.INTER.SOLV>
10.6112

>  <SCORE.INTER.VDW>
-34.1265

>  <SCORE.INTER.norm>
-1.64415

>  <SCORE.INTRA>
-0.428754

>  <SCORE.INTRA.DIHEDRAL>
-4.73536

>  <SCORE.INTRA.DIHEDRAL.0>
18.0451

>  <SCORE.INTRA.POLAR>
-0.447196

>  <SCORE.INTRA.POLAR.0>
-0.196815

>  <SCORE.INTRA.REPUL>
0

>  <SCORE.INTRA.REPUL.0>
0

>  <SCORE.INTRA.SOLV>
0.0134325

>  <SCORE.INTRA.SOLV.lig_0>
-14.7906

>  <SCORE.INTRA.VDW>
3.45268

>  <SCORE.INTRA.VDW.0>
-0.411701

>  <SCORE.INTRA.norm>
-0.0142918

>  <SCORE.RESTR>
0

>  <SCORE.RESTR.CAVITY>
0

>  <SCORE.RESTR.norm>
0

>  <SCORE.SYSTEM>
0

>  <SCORE.SYSTEM.CONST>
0

>  <SCORE.SYSTEM.DIHEDRAL>
0

>  <SCORE.SYSTEM.SOLV>
0

>  <SCORE.SYSTEM.norm>
0

>  <SCORE.heavy>
30

>  <SCORE.norm>
-1.65844

>  <RMSD>
9.890

$$$$
1uts_lig
 OpenBabel11021811413D
libRbt.so/2013.1/901 2013/11/27
 30 33  0  0  0  0  0  0  0  0999 V2000
   -1.5853    4.4681   10.4274 N   0  0  0  0  0  0  0  0  0  0  0  0
   -3.0081    3.7372   12.2925 C   0  0  0  0  0  0  0  0  0  0  0  0
   -2.7315    4.9845   17.3815 C   0  0  0  0  0  0  0  0  0  0  0  0
   -2.1068    3.4032   13.4847 C   0  0  0  0  0  0  0  0  0  0  0  0
   -2.3260    4.3614   14.5305 O   0  0  0  0  0  0  0  0  0  0  0  0
   -2.4375    4.9416   11.5414 C   0  0  0  0  0  0  0  0  0  0  0  0
   -3.7174    4.0378   16.8126 N   0  0  0  0  0  0  0  0  0  0  0  0
   -5.0818    4.3902   17.2872 C   0  0  0  0  0  0  0  0  0  0  0  0
   -6.0699    3.2914   16.8848 C   0  0  0  0  0  0  0  0  0  0  0  0
   -6.6927    3.6398   15.5881 N   0  0  0  0  0  0  0  0  0  0  0  0
   -8.0287    2.9841   15.4915 C   0  0  0  0  0  0  0  0  0  0  0  0
   -5.8090    3.1855   14.4775 C   0  0  0  0  0  0  0  0  0  0  0  0
   -8.6771    3.3407   14.1441 C   0  0  0  0  0  0  0  0  0  0  0  0
   -6.4590    3.5386   13.1276 C   0  0  0  0  0  0  0  0  0  0  0  0
   -7.7942    2.8854   13.0329 N   0  0  0  0  0  0  0  0  0  0  0  0
    1.2577    4.2806   15.7064 C   0  0  0  0  0  0  0  0  0  0  0  0
    5.7804    4.8008   20.2002 N   0  0  0  0  0  0  0  0  0  0  0  0
    1.1073    4.5951   17.0781 C   0  0  0  0  0  0  0  0  0  0  0  0
   -0.1882    4.8224   17.6144 C   0  0  0  0  0  0  0  0  0  0  0  0
   -1.3349    4.7321   16.7784 C   0  0  0  0  0  0  0  0  0  0  0  0
   -1.1796    4.4310   15.3919 C   0  0  0  0  0  0  0  0  0  0  0  0
    0.1194    4.2013   14.8613 C   0  0  0  0  0  0  0  0  0  0  0  0
    6.4672    3.7463   19.5567 C   0  0  0  0  0  0  0  0  0  0  0  0
    5.6779    3.1822   18.5289 C   0  0  0  0  0  0  0  0  0  0  0  0
    3.3315    3.7914   17.6998 C   0  0  0  0  0  0  0  0  0  0  0  0
    2.2426    4.6838   17.8959 C   0  0  0  0  0  0  0  0  0  0  0  0
    2.3099    5.6705   18.9177 C   0  0  0  0  0  0  0  0  0  0  0  0
    3.4651    5.7653   19.7399 C   0  0  0  0  0  0  0  0  0  0  0  0
    4.5646    4.8752   19.5311 C   0  0  0  0  0  0  0  0  0  0  0  0
    4.4996    3.8980   18.5211 C   0  0  0  0  0  0  0  0  0  0  0  0
  1  6  1  0  0  0  0
  2  4  1  0  0  0  0
  3  7  1  0  0  0  0
  4  5  1  0  0  0  0
  6  2  1  0  0  0  0
  7  8  1  0  0  0  0
  8  9  1  0  0  0  0
  9 10  1  0  0  0  0
 10 11  1  0  0  0  0
 10 12  1  0  0  0  0
 11 13  1  0  0  0  0
 13 15  1  0  0  0  0
 14 12  1  0  0  0  0
 15 14  1  0  0  0  0
 16 18  2  0  0  0  0
 16 22  1  0  0  0  0
 17 23  1  0  0  0  0
 17 29  1  0  0  0  0
 18 19  1  0  0  0  0
 18 26  1  0  0  0  0
 19 20  2  0  0  0  0
 20  3  1  0  0  0  0
 20 21  1  0  0  0  0
 21  5  1  0  0  0  0
 21 22  2  0  0  0  0
 23 24  2  0  0  0  0
 24 30  1  0  0  0  0
 25 26  2  0  0  0  0
 25 30  1  0  0  0  0
 26 27  1  0  0  0  0
 27 28  2  0  0  0  0
 28 29  1  0  0  0  0
 29 30  2  0  0  0  0
M  END
>  <CHROM.1>
48.99629679,75.55146098,-173.73322428,-156.50009526,94.26918962,-171.10891045
-93.21125926,-154.07351310,-37.03056590,-140.76473365,-148.48348767,-1.35488074
4.13469267,16.02023558,-2.71585528,0.07963350,1.55001029

>  <Name>
1uts_lig

>  <RI>
0

>  <Rbt.Current_Directory>
/home/itssahil/PROJECTS/Mol_Feturizer/New_Systems/rnas/1uts

>  <Rbt.Executable>
rbdock ($Id: //depot/dev/client3/rdock/2013.1/src/exe/rbdock.cxx#4 $)

>  <Rbt.Library>
libRbt.so (2013.1, Build901 2013/11/27)

>  <Rbt.Parameter_File>
/export/apps/rDock/src/rDock_2013.1_src/data/scripts/dock_solv.prm

>  <Rbt.Receptor>
prm/pocket_docking_5.prm

>  <SCORE>
-29.9831

>  <SCORE.INTER>
-28.1796

>  <SCORE.INTER.CONST>
1

>  <SCORE.INTER.POLAR>
-1

>  <SCORE.INTER.ROT>
10

>  <SCORE.INTER.SOLV>
8.86326

>  <SCORE.INTER.VDW>
-28.6741

>  <SCORE.INTER.norm>
-0.939319

>  <SCORE.INTRA>
-1.80352

>  <SCORE.INTRA.DIHEDRAL>
-2.43709

>  <SCORE.INTRA.DIHEDRAL.0>
18.0451

>  <SCORE.INTRA.POLAR>
-0.486347

>  <SCORE.INTRA.POLAR.0>
-0.196815

>  <SCORE.INTRA.REPUL>
0

>  <SCORE.INTRA.REPUL.0>
0

>  <SCORE.INTRA.SOLV>
0.0818326

>  <SCORE.INTRA.SOLV.lig_0>
-14.7906

>  <SCORE.INTRA.VDW>
1.02769

>  <SCORE.INTRA.VDW.0>
-0.411701

>  <SCORE.INTRA.norm>
-0.0601174

>  <SCORE.RESTR>
0

>  <SCORE.RESTR.CAVITY>
0

>  <SCORE.RESTR.norm>
0

>  <SCORE.SYSTEM>
0

>  <SCORE.SYSTEM.CONST>
0

>  <SCORE.SYSTEM.DIHEDRAL>
0

>  <SCORE.SYSTEM.SOLV>
0

>  <SCORE.SYSTEM.norm>
0

>  <SCORE.heavy>
30

>  <SCORE.norm>
-0.999437

>  <RMSD>
9.917

$$$$
1uts_lig
 OpenBabel11021811413D
libRbt.so/2013.1/901 2013/11/27
 30 33  0  0  0  0  0  0  0  0999 V2000
   -7.7915    4.0195   15.9350 N   0  0  0  0  0  0  0  0  0  0  0  0
   -5.5121    4.4288   16.7560 C   0  0  0  0  0  0  0  0  0  0  0  0
   -2.2747    3.8383   14.3224 C   0  0  0  0  0  0  0  0  0  0  0  0
   -4.0778    3.8946   16.7035 C   0  0  0  0  0  0  0  0  0  0  0  0
   -3.1582    4.9804   16.8907 O   0  0  0  0  0  0  0  0  0  0  0  0
   -6.4644    3.3985   16.1464 C   0  0  0  0  0  0  0  0  0  0  0  0
   -1.8293    4.7507   13.2448 N   0  0  0  0  0  0  0  0  0  0  0  0
   -1.6959    3.9945   11.9715 C   0  0  0  0  0  0  0  0  0  0  0  0
   -1.5719    4.9721   10.7991 C   0  0  0  0  0  0  0  0  0  0  0  0
   -2.9032    5.5391   10.4877 N   0  0  0  0  0  0  0  0  0  0  0  0
   -3.8183    4.4415   10.0615 C   0  0  0  0  0  0  0  0  0  0  0  0
   -2.7671    6.5531    9.4041 C   0  0  0  0  0  0  0  0  0  0  0  0
   -5.2012    5.0273    9.7334 C   0  0  0  0  0  0  0  0  0  0  0  0
   -4.1519    7.1377    9.0720 C   0  0  0  0  0  0  0  0  0  0  0  0
   -5.0660    6.0406    8.6488 N   0  0  0  0  0  0  0  0  0  0  0  0
    0.4125    4.1410   17.7724 C   0  0  0  0  0  0  0  0  0  0  0  0
    6.2333    1.9105   16.2157 N   0  0  0  0  0  0  0  0  0  0  0  0
    0.8708    3.5692   16.5614 C   0  0  0  0  0  0  0  0  0  0  0  0
   -0.0053    3.4738   15.4475 C   0  0  0  0  0  0  0  0  0  0  0  0
   -1.3404    3.9536   15.5438 C   0  0  0  0  0  0  0  0  0  0  0  0
   -1.8054    4.5149   16.7709 C   0  0  0  0  0  0  0  0  0  0  0  0
   -0.9230    4.6107   17.8817 C   0  0  0  0  0  0  0  0  0  0  0  0
    6.7908    3.1785   15.9346 C   0  0  0  0  0  0  0  0  0  0  0  0
    5.7841    4.1677   15.8596 C   0  0  0  0  0  0  0  0  0  0  0  0
    3.2475    3.9964   16.1763 C   0  0  0  0  0  0  0  0  0  0  0  0
    2.1880    3.0969   16.4745 C   0  0  0  0  0  0  0  0  0  0  0  0
    2.4673    1.7195   16.6911 C   0  0  0  0  0  0  0  0  0  0  0  0
    3.8040    1.2438   16.6118 C   0  0  0  0  0  0  0  0  0  0  0  0
    4.8695    2.1536   16.3254 C   0  0  0  0  0  0  0  0  0  0  0  0
    4.5950    3.5166   16.1102 C   0  0  0  0  0  0  0  0  0  0  0  0
  1  6  1  0  0  0  0
  2  4  1  0  0  0  0
  3  7  1  0  0  0  0
  4  5  1  0  0  0  0
  6  2  1  0  0  0  0
  7  8  1  0  0  0  0
  8  9  1  0  0  0  0
  9 10  1  0  0  0  0
 10 11  1  0  0  0  0
 10 12  1  0  0  0  0
 11 13  1  0  0  0  0
 13 15  1  0  0  0  0
 14 12  1  0  0  0  0
 15 14  1  0  0  0  0
 16 18  2  0  0  0  0
 16 22  1  0  0  0  0
 17 23  1  0  0  0  0
 17 29  1  0  0  0  0
 18 19  1  0  0  0  0
 18 26  1  0  0  0  0
 19 20  2  0  0  0  0
 20  3  1  0  0  0  0
 20 21  1  0  0  0  0
 21  5  1  0  0  0  0
 21 22  2  0  0  0  0
 23 24  2  0  0  0  0
 24 30  1  0  0  0  0
 25 26  2  0  0  0  0
 25 30  1  0  0  0  0
 26 27  1  0  0  0  0
 27 28  2  0  0  0  0
 28 29  1  0  0  0  0
 29 30  2  0  0  0  0
M  END
>  <CHROM.1>
63.90129493,162.84914313,128.09619312,-176.79327726,-168.13503984,166.32684789
-76.45162822,-62.53001645,-83.78191800,-68.88598250,62.21695949,-0.91799646
4.12600733,14.44166790,2.62472966,0.12286088,-1.32453262

>  <Name>
1uts_lig

>  <RI>
0

>  <Rbt.Current_Directory>
/home/itssahil/PROJECTS/Mol_Feturizer/New_Systems/rnas/1uts

>  <Rbt.Executable>
rbdock ($Id: //depot/dev/client3/rdock/2013.1/src/exe/rbdock.cxx#4 $)

>  <Rbt.Library>
libRbt.so (2013.1, Build901 2013/11/27)

>  <Rbt.Parameter_File>
/export/apps/rDock/src/rDock_2013.1_src/data/scripts/dock_solv.prm

>  <Rbt.Receptor>
prm/pocket_docking_5.prm

>  <SCORE>
-40.5349

>  <SCORE.INTER>
-40.7401

>  <SCORE.INTER.CONST>
1

>  <SCORE.INTER.POLAR>
-2.84984

>  <SCORE.INTER.ROT>
10

>  <SCORE.INTER.SOLV>
10.0169

>  <SCORE.INTER.VDW>
-31.2662

>  <SCORE.INTER.norm>
-1.358

>  <SCORE.INTRA>
0.159984

>  <SCORE.INTRA.DIHEDRAL>
-2.3164

>  <SCORE.INTRA.DIHEDRAL.0>
18.0451

>  <SCORE.INTRA.POLAR>
0.196815

>  <SCORE.INTRA.POLAR.0>
-0.196815

>  <SCORE.INTRA.REPUL>
0

>  <SCORE.INTRA.REPUL.0>
0

>  <SCORE.INTRA.SOLV>
-0.434269

>  <SCORE.INTRA.SOLV.lig_0>
-14.7906

>  <SCORE.INTRA.VDW>
0.866149

>  <SCORE.INTRA.VDW.0>
-0.411701

>  <SCORE.INTRA.norm>
0.00533281

>  <SCORE.RESTR>
0.0452515

>  <SCORE.RESTR.CAVITY>
0.0452515

>  <SCORE.RESTR.norm>
0.00150838

>  <SCORE.SYSTEM>
0

>  <SCORE.SYSTEM.CONST>
0

>  <SCORE.SYSTEM.DIHEDRAL>
0

>  <SCORE.SYSTEM.SOLV>
0

>  <SCORE.SYSTEM.norm>
0

>  <SCORE.heavy>
30

>  <SCORE.norm>
-1.35116

>  <RMSD>
9.919

$$$$
1uts_lig
 OpenBabel11021811413D
libRbt.so/2013.1/901 2013/11/27
 30 33  0  0  0  0  0  0  0  0999 V2000
   -6.5224    4.1395   14.9608 N   0  0  0  0  0  0  0  0  0  0  0  0
   -5.8519    2.2855   16.4272 C   0  0  0  0  0  0  0  0  0  0  0  0
   -1.6060    3.6500   14.5952 C   0  0  0  0  0  0  0  0  0  0  0  0
   -4.7003    3.0177   17.1221 C   0  0  0  0  0  0  0  0  0  0  0  0
   -4.0704    3.9081   16.1894 O   0  0  0  0  0  0  0  0  0  0  0  0
   -6.9604    3.2830   16.0860 C   0  0  0  0  0  0  0  0  0  0  0  0
   -1.8375    4.6687   13.5461 N   0  0  0  0  0  0  0  0  0  0  0  0
   -2.1120    3.9974   12.2480 C   0  0  0  0  0  0  0  0  0  0  0  0
   -2.7949    4.9794   11.2915 C   0  0  0  0  0  0  0  0  0  0  0  0
   -2.9253    4.3555    9.9555 N   0  0  0  0  0  0  0  0  0  0  0  0
   -1.5952    4.3534    9.2811 C   0  0  0  0  0  0  0  0  0  0  0  0
   -3.9168    5.1205    9.1476 C   0  0  0  0  0  0  0  0  0  0  0  0
   -1.7276    3.7096    7.8915 C   0  0  0  0  0  0  0  0  0  0  0  0
   -4.0474    4.4789    7.7545 C   0  0  0  0  0  0  0  0  0  0  0  0
   -2.7182    4.4749    7.0826 N   0  0  0  0  0  0  0  0  0  0  0  0
   -1.6157    5.5088   18.5650 C   0  0  0  0  0  0  0  0  0  0  0  0
    4.5068    7.1262   19.9512 N   0  0  0  0  0  0  0  0  0  0  0  0
   -0.4068    5.3879   17.8388 C   0  0  0  0  0  0  0  0  0  0  0  0
   -0.4106    4.7841   16.5532 C   0  0  0  0  0  0  0  0  0  0  0  0
   -1.6254    4.3035   15.9918 C   0  0  0  0  0  0  0  0  0  0  0  0
   -2.8406    4.4117   16.7327 C   0  0  0  0  0  0  0  0  0  0  0  0
   -2.8312    5.0198   18.0179 C   0  0  0  0  0  0  0  0  0  0  0  0
    5.2936    6.0565   19.4670 C   0  0  0  0  0  0  0  0  0  0  0  0
    4.5001    5.1261   18.7582 C   0  0  0  0  0  0  0  0  0  0  0  0
    1.9924    5.1276   18.2334 C   0  0  0  0  0  0  0  0  0  0  0  0
    0.7873    5.8629   18.3994 C   0  0  0  0  0  0  0  0  0  0  0  0
    0.7964    7.0836   19.1287 C   0  0  0  0  0  0  0  0  0  0  0  0
    2.0092    7.5686   19.6886 C   0  0  0  0  0  0  0  0  0  0  0  0
    3.2226    6.8337   19.5079 C   0  0  0  0  0  0  0  0  0  0  0  0
    3.2154    5.6255   18.7873 C   0  0  0  0  0  0  0  0  0  0  0  0
  1  6  1  0  0  0  0
  2  4  1  0  0  0  0
  3  7  1  0  0  0  0
  4  5  1  0  0  0  0
  6  2  1  0  0  0  0
  7  8  1  0  0  0  0
  8  9  1  0  0  0  0
  9 10  1  0  0  0  0
 10 11  1  0  0  0  0
 10 12  1  0  0  0  0
 11 13  1  0  0  0  0
 13 15  1  0  0  0  0
 14 12  1  0  0  0  0
 15 14  1  0  0  0  0
 16 18  2  0  0  0  0
 16 22  1  0  0  0  0
 17 23  1  0  0  0  0
 17 29  1  0  0  0  0
 18 19  1  0  0  0  0
 18 26  1  0  0  0  0
 19 20  2  0  0  0  0
 20  3  1  0  0  0  0
 20 21  1  0  0  0  0
 21  5  1  0  0  0  0
 21 22  2  0  0  0  0
 23 24  2  0  0  0  0
 24 30  1  0  0  0  0
 25 26  2  0  0  0  0
 25 30  1  0  0  0  0
 26 27  1  0  0  0  0
 27 28  2  0  0  0  0
 28 29  1  0  0  0  0
 29 30  2  0  0  0  0
M  END
>  <CHROM.1>
-53.22308194,-67.34767133,-167.68735011,-168.99188247,72.62921903,161.35085899
173.60091083,-75.29246124,140.53359978,-90.71073762,127.12479000,-1.37333817
4.83797034,15.11667955,2.17587330,-0.27980707,-1.59369322

>  <Name>
1uts_lig

>  <RI>
0

>  <Rbt.Current_Directory>
/home/itssahil/PROJECTS/Mol_Feturizer/New_Systems/rnas/1uts

>  <Rbt.Executable>
rbdock ($Id: //depot/dev/client3/rdock/2013.1/src/exe/rbdock.cxx#4 $)

>  <Rbt.Library>
libRbt.so (2013.1, Build901 2013/11/27)

>  <Rbt.Parameter_File>
/export/apps/rDock/src/rDock_2013.1_src/data/scripts/dock_solv.prm

>  <Rbt.Receptor>
prm/pocket_docking_6.prm

>  <SCORE>
-46.0011

>  <SCORE.INTER>
-41.0276

>  <SCORE.INTER.CONST>
1

>  <SCORE.INTER.POLAR>
-3.79652

>  <SCORE.INTER.ROT>
10

>  <SCORE.INTER.SOLV>
9.17763

>  <SCORE.INTER.VDW>
-28.0225

>  <SCORE.INTER.norm>
-1.36759

>  <SCORE.INTRA>
-4.97354

>  <SCORE.INTRA.DIHEDRAL>
-9.00254

>  <SCORE.INTRA.DIHEDRAL.0>
18.0451

>  <SCORE.INTRA.POLAR>
-0.448552

>  <SCORE.INTRA.POLAR.0>
-0.196815

>  <SCORE.INTRA.REPUL>
0

>  <SCORE.INTRA.REPUL.0>
0

>  <SCORE.INTRA.SOLV>
-0.0755212

>  <SCORE.INTRA.SOLV.lig_0>
-14.7906

>  <SCORE.INTRA.VDW>
1.09057

>  <SCORE.INTRA.VDW.0>
-0.411701

>  <SCORE.INTRA.norm>
-0.165785

>  <SCORE.RESTR>
0

>  <SCORE.RESTR.CAVITY>
0

>  <SCORE.RESTR.norm>
0

>  <SCORE.SYSTEM>
0

>  <SCORE.SYSTEM.CONST>
0

>  <SCORE.SYSTEM.DIHEDRAL>
0

>  <SCORE.SYSTEM.SOLV>
0

>  <SCORE.SYSTEM.norm>
0

>  <SCORE.heavy>
30

>  <SCORE.norm>
-1.53337

>  <RMSD>
9.920

$$$$
1uts_lig
 OpenBabel11021811413D
libRbt.so/2013.1/901 2013/11/27
 30 33  0  0  0  0  0  0  0  0999 V2000
   -7.4187    4.2159   16.1157 N   0  0  0  0  0  0  0  0  0  0  0  0
   -5.0033    3.7703   16.1810 C   0  0  0  0  0  0  0  0  0  0  0  0
   -2.1401    3.9050   14.3423 C   0  0  0  0  0  0  0  0  0  0  0  0
   -3.7572    3.8165   17.0700 C   0  0  0  0  0  0  0  0  0  0  0  0
   -3.0826    5.0689   16.8797 O   0  0  0  0  0  0  0  0  0  0  0  0
   -6.2008    4.3325   16.9491 C   0  0  0  0  0  0  0  0  0  0  0  0
   -1.5158    4.1802   13.0283 N   0  0  0  0  0  0  0  0  0  0  0  0
   -2.5714    4.3053   11.9886 C   0  0  0  0  0  0  0  0  0  0  0  0
   -1.9255    4.3940   10.6028 C   0  0  0  0  0  0  0  0  0  0  0  0
   -2.9603    4.1950    9.5633 N   0  0  0  0  0  0  0  0  0  0  0  0
   -2.3035    4.0890    8.2287 C   0  0  0  0  0  0  0  0  0  0  0  0
   -3.9103    5.3431    9.5857 C   0  0  0  0  0  0  0  0  0  0  0  0
   -3.3756    3.8861    7.1458 C   0  0  0  0  0  0  0  0  0  0  0  0
   -4.9822    5.1428    8.4992 C   0  0  0  0  0  0  0  0  0  0  0  0
   -4.3254    5.0346    7.1669 N   0  0  0  0  0  0  0  0  0  0  0  0
    0.6256    4.9831   17.5676 C   0  0  0  0  0  0  0  0  0  0  0  0
    6.6543    3.7237   15.6652 N   0  0  0  0  0  0  0  0  0  0  0  0
    1.1172    4.4095   16.3707 C   0  0  0  0  0  0  0  0  0  0  0  0
    0.2155    4.0621   15.3297 C   0  0  0  0  0  0  0  0  0  0  0  0
   -1.1792    4.2914   15.4847 C   0  0  0  0  0  0  0  0  0  0  0  0
   -1.6745    4.8549   16.6990 C   0  0  0  0  0  0  0  0  0  0  0  0
   -0.7668    5.2035   17.7364 C   0  0  0  0  0  0  0  0  0  0  0  0
    6.8384    4.7534   14.7145 C   0  0  0  0  0  0  0  0  0  0  0  0
    5.6119    5.3878   14.4131 C   0  0  0  0  0  0  0  0  0  0  0  0
    3.2516    4.9769   15.3208 C   0  0  0  0  0  0  0  0  0  0  0  0
    2.4935    4.1850   16.2257 C   0  0  0  0  0  0  0  0  0  0  0  0
    3.1345    3.1700   16.9880 C   0  0  0  0  0  0  0  0  0  0  0  0
    4.5313    2.9496   16.8469 C   0  0  0  0  0  0  0  0  0  0  0  0
    5.2937    3.7572   15.9460 C   0  0  0  0  0  0  0  0  0  0  0  0
    4.6612    4.7614   15.1905 C   0  0  0  0  0  0  0  0  0  0  0  0
  1  6  1  0  0  0  0
  2  4  1  0  0  0  0
  3  7  1  0  0  0  0
  4  5  1  0  0  0  0
  6  2  1  0  0  0  0
  7  8  1  0  0  0  0
  8  9  1  0  0  0  0
  9 10  1  0  0  0  0
 10 11  1  0  0  0  0
 10 12  1  0  0  0  0
 11 13  1  0  0  0  0
 13 15  1  0  0  0  0
 14 12  1  0  0  0  0
 15 14  1  0  0  0  0
 16 18  2  0  0  0  0
 16 22  1  0  0  0  0
 17 23  1  0  0  0  0
 17 29  1  0  0  0  0
 18 19  1  0  0  0  0
 18 26  1  0  0  0  0
 19 20  2  0  0  0  0
 20  3  1  0  0  0  0
 20 21  1  0  0  0  0
 21  5  1  0  0  0  0
 21 22  2  0  0  0  0
 23 24  2  0  0  0  0
 24 30  1  0  0  0  0
 25 26  2  0  0  0  0
 25 30  1  0  0  0  0
 26 27  1  0  0  0  0
 27 28  2  0  0  0  0
 28 29  1  0  0  0  0
 29 30  2  0  0  0  0
M  END
>  <CHROM.1>
165.88049676,-90.18841296,-158.64793306,-133.17074926,-176.81415930,-172.13169422
166.66515831,-172.05604403,-109.46699202,-37.18954210,72.39876314,-0.69732329
4.37099422,14.01327247,2.58658088,0.01253258,-1.53979857

>  <Name>
1uts_lig

>  <RI>
0

>  <Rbt.Current_Directory>
/home/itssahil/PROJECTS/Mol_Feturizer/New_Systems/rnas/1uts

>  <Rbt.Executable>
rbdock ($Id: //depot/dev/client3/rdock/2013.1/src/exe/rbdock.cxx#4 $)

>  <Rbt.Library>
libRbt.so (2013.1, Build901 2013/11/27)

>  <Rbt.Parameter_File>
/export/apps/rDock/src/rDock_2013.1_src/data/scripts/dock_solv.prm

>  <Rbt.Receptor>
prm/pocket_docking_6.prm

>  <SCORE>
-39.9949

>  <SCORE.INTER>
-42.0246

>  <SCORE.INTER.CONST>
1

>  <SCORE.INTER.POLAR>
-2.7899

>  <SCORE.INTER.ROT>
10

>  <SCORE.INTER.SOLV>
10.7989

>  <SCORE.INTER.VDW>
-32.583

>  <SCORE.INTER.norm>
-1.40082

>  <SCORE.INTRA>
2.0297

>  <SCORE.INTRA.DIHEDRAL>
2.93208

>  <SCORE.INTRA.DIHEDRAL.0>
18.0451

>  <SCORE.INTRA.POLAR>
0.196815

>  <SCORE.INTRA.POLAR.0>
-0.196815

>  <SCORE.INTRA.REPUL>
0

>  <SCORE.INTRA.REPUL.0>
0

>  <SCORE.INTRA.SOLV>
-0.659845

>  <SCORE.INTRA.SOLV.lig_0>
-14.7906

>  <SCORE.INTRA.VDW>
0.224411

>  <SCORE.INTRA.VDW.0>
-0.411701

>  <SCORE.INTRA.norm>
0.0676568

>  <SCORE.RESTR>
0

>  <SCORE.RESTR.CAVITY>
0

>  <SCORE.RESTR.norm>
0

>  <SCORE.SYSTEM>
0

>  <SCORE.SYSTEM.CONST>
0

>  <SCORE.SYSTEM.DIHEDRAL>
0

>  <SCORE.SYSTEM.SOLV>
0

>  <SCORE.SYSTEM.norm>
0

>  <SCORE.heavy>
30

>  <SCORE.norm>
-1.33316

>  <RMSD>
9.922

$$$$
1uts_lig
 OpenBabel11021811413D
libRbt.so/2013.1/901 2013/11/27
 30 33  0  0  0  0  0  0  0  0999 V2000
   -1.3075    5.1498   10.4596 N   0  0  0  0  0  0  0  0  0  0  0  0
   -2.2310    4.5815   12.6644 C   0  0  0  0  0  0  0  0  0  0  0  0
   -3.0611    4.6386   16.1055 C   0  0  0  0  0  0  0  0  0  0  0  0
   -1.5734    3.2142   12.8722 C   0  0  0  0  0  0  0  0  0  0  0  0
   -1.8690    2.7396   14.1940 O   0  0  0  0  0  0  0  0  0  0  0  0
   -2.5458    4.7774   11.1802 C   0  0  0  0  0  0  0  0  0  0  0  0
   -3.8642    3.3958   16.0569 N   0  0  0  0  0  0  0  0  0  0  0  0
   -5.3110    3.7312   16.1301 C   0  0  0  0  0  0  0  0  0  0  0  0
   -6.1430    2.4459   16.0942 C   0  0  0  0  0  0  0  0  0  0  0  0
   -6.7881    2.3136   14.7686 N   0  0  0  0  0  0  0  0  0  0  0  0
   -7.8161    3.3825   14.6124 C   0  0  0  0  0  0  0  0  0  0  0  0
   -7.4169    0.9670   14.6573 C   0  0  0  0  0  0  0  0  0  0  0  0
   -8.4911    3.2459   13.2380 C   0  0  0  0  0  0  0  0  0  0  0  0
   -8.0963    0.8304   13.2828 C   0  0  0  0  0  0  0  0  0  0  0  0
   -9.1212    1.8998   13.1265 N   0  0  0  0  0  0  0  0  0  0  0  0
    1.2262    3.7255   16.1121 C   0  0  0  0  0  0  0  0  0  0  0  0
    4.3192    7.1287   20.5560 N   0  0  0  0  0  0  0  0  0  0  0  0
    0.6958    4.6576   17.0357 C   0  0  0  0  0  0  0  0  0  0  0  0
   -0.6943    4.9493   17.0279 C   0  0  0  0  0  0  0  0  0  0  0  0
   -1.5554    4.3056   16.0973 C   0  0  0  0  0  0  0  0  0  0  0  0
   -1.0159    3.3782   15.1560 C   0  0  0  0  0  0  0  0  0  0  0  0
    0.3760    3.0879   15.1706 C   0  0  0  0  0  0  0  0  0  0  0  0
    5.5009    6.5941   19.9943 C   0  0  0  0  0  0  0  0  0  0  0  0
    5.2025    5.7375   18.9105 C   0  0  0  0  0  0  0  0  0  0  0  0
    2.9555    5.0860   17.8661 C   0  0  0  0  0  0  0  0  0  0  0  0
    1.5512    5.2894   17.9493 C   0  0  0  0  0  0  0  0  0  0  0  0
    1.0166    6.1398   18.9559 C   0  0  0  0  0  0  0  0  0  0  0  0
    1.8855    6.7869   19.8756 C   0  0  0  0  0  0  0  0  0  0  0  0
    3.2989    6.5913   19.7806 C   0  0  0  0  0  0  0  0  0  0  0  0
    3.8296    5.7498   18.7858 C   0  0  0  0  0  0  0  0  0  0  0  0
  1  6  1  0  0  0  0
  2  4  1  0  0  0  0
  3  7  1  0  0  0  0
  4  5  1  0  0  0  0
  6  2  1  0  0  0  0
  7  8  1  0  0  0  0
  8  9  1  0  0  0  0
  9 10  1  0  0  0  0
 10 11  1  0  0  0  0
 10 12  1  0  0  0  0
 11 13  1  0  0  0  0
 13 15  1  0  0  0  0
 14 12  1  0  0  0  0
 15 14  1  0  0  0  0
 16 18  2  0  0  0  0
 16 22  1  0  0  0  0
 17 23  1  0  0  0  0
 17 29  1  0  0  0  0
 18 19  1  0  0  0  0
 18 26  1  0  0  0  0
 19 20  2  0  0  0  0
 20  3  1  0  0  0  0
 20 21  1  0  0  0  0
 21  5  1  0  0  0  0
 21 22  2  0  0  0  0
 23 24  2  0  0  0  0
 24 30  1  0  0  0  0
 25 26  2  0  0  0  0
 25 30  1  0  0  0  0
 26 27  1  0  0  0  0
 27 28  2  0  0  0  0
 28 29  1  0  0  0  0
 29 30  2  0  0  0  0
M  END
>  <CHROM.1>
179.79982785,-151.66770211,177.35528955,-79.16050207,-78.33560008,-179.43228812
-106.18013679,-67.92705014,5.71282443,-133.19881430,111.35066383,-1.76482453
4.16015354,15.81753643,-2.67148109,0.29708805,1.50095816

>  <Name>
1uts_lig

>  <RI>
0

>  <Rbt.Current_Directory>
/home/itssahil/PROJECTS/Mol_Feturizer/New_Systems/rnas/1uts

>  <Rbt.Executable>
rbdock ($Id: //depot/dev/client3/rdock/2013.1/src/exe/rbdock.cxx#4 $)

>  <Rbt.Library>
libRbt.so (2013.1, Build901 2013/11/27)

>  <Rbt.Parameter_File>
/export/apps/rDock/src/rDock_2013.1_src/data/scripts/dock_solv.prm

>  <Rbt.Receptor>
prm/pocket_docking_4.prm

>  <SCORE>
-32.1258

>  <SCORE.INTER>
-30.6805

>  <SCORE.INTER.CONST>
1

>  <SCORE.INTER.POLAR>
-1.85575

>  <SCORE.INTER.ROT>
10

>  <SCORE.INTER.SOLV>
8.07954

>  <SCORE.INTER.VDW>
-27.2277

>  <SCORE.INTER.norm>
-1.02268

>  <SCORE.INTRA>
-1.50074

>  <SCORE.INTRA.DIHEDRAL>
-2.72373

>  <SCORE.INTRA.DIHEDRAL.0>
18.0451

>  <SCORE.INTRA.POLAR>
-0.352336

>  <SCORE.INTRA.POLAR.0>
-0.196815

>  <SCORE.INTRA.REPUL>
0

>  <SCORE.INTRA.REPUL.0>
0

>  <SCORE.INTRA.SOLV>
-0.181146

>  <SCORE.INTRA.SOLV.lig_0>
-14.7906

>  <SCORE.INTRA.VDW>
1.14964

>  <SCORE.INTRA.VDW.0>
-0.411701

>  <SCORE.INTRA.norm>
-0.0500247

>  <SCORE.RESTR>
0.0554055

>  <SCORE.RESTR.CAVITY>
0.0554055

>  <SCORE.RESTR.norm>
0.00184685

>  <SCORE.SYSTEM>
0

>  <SCORE.SYSTEM.CONST>
0

>  <SCORE.SYSTEM.DIHEDRAL>
0

>  <SCORE.SYSTEM.SOLV>
0

>  <SCORE.SYSTEM.norm>
0

>  <SCORE.heavy>
30

>  <SCORE.norm>
-1.07086

>  <RMSD>
9.923

$$$$
1uts_lig
 OpenBabel11021811413D
libRbt.so/2013.1/901 2013/11/27
 30 33  0  0  0  0  0  0  0  0999 V2000
   -7.0137    1.7522   13.7960 N   0  0  0  0  0  0  0  0  0  0  0  0
   -7.9811    3.3766   15.3653 C   0  0  0  0  0  0  0  0  0  0  0  0
   -2.8590    3.2169   14.5913 C   0  0  0  0  0  0  0  0  0  0  0  0
   -6.7513    4.2108   15.7355 C   0  0  0  0  0  0  0  0  0  0  0  0
   -5.5832    3.3776   15.7020 O   0  0  0  0  0  0  0  0  0  0  0  0
   -7.8845    2.9448   13.9009 C   0  0  0  0  0  0  0  0  0  0  0  0
   -2.6134    4.2006   13.5123 N   0  0  0  0  0  0  0  0  0  0  0  0
   -2.7792    3.5438   12.1886 C   0  0  0  0  0  0  0  0  0  0  0  0
   -3.3379    4.5497   11.1779 C   0  0  0  0  0  0  0  0  0  0  0  0
   -2.2392    5.4043   10.6746 N   0  0  0  0  0  0  0  0  0  0  0  0
   -2.3717    6.7706   11.2575 C   0  0  0  0  0  0  0  0  0  0  0  0
   -2.3024    5.4653    9.1869 C   0  0  0  0  0  0  0  0  0  0  0  0
   -1.2342    7.6623   10.7340 C   0  0  0  0  0  0  0  0  0  0  0  0
   -1.1660    6.3611    8.6617 C   0  0  0  0  0  0  0  0  0  0  0  0
   -1.2976    7.7247    9.2462 N   0  0  0  0  0  0  0  0  0  0  0  0
   -3.7063    5.2785   18.3657 C   0  0  0  0  0  0  0  0  0  0  0  0
    1.9485    7.5139   20.6269 N   0  0  0  0  0  0  0  0  0  0  0  0
   -2.3805    5.2084   17.8753 C   0  0  0  0  0  0  0  0  0  0  0  0
   -2.1128    4.5384   16.6518 C   0  0  0  0  0  0  0  0  0  0  0  0
   -3.1728    3.9406   15.9164 C   0  0  0  0  0  0  0  0  0  0  0  0
   -4.5067    3.9984   16.4209 C   0  0  0  0  0  0  0  0  0  0  0  0
   -4.7691    4.6730   17.6447 C   0  0  0  0  0  0  0  0  0  0  0  0
    2.9762    6.9699   19.8234 C   0  0  0  0  0  0  0  0  0  0  0  0
    2.4405    6.1476   18.8063 C   0  0  0  0  0  0  0  0  0  0  0  0
    0.0115    5.5691   18.2325 C   0  0  0  0  0  0  0  0  0  0  0  0
   -1.3404    5.7990   18.6067 C   0  0  0  0  0  0  0  0  0  0  0  0
   -1.6358    6.6341   19.7191 C   0  0  0  0  0  0  0  0  0  0  0  0
   -0.5808    7.2395   20.4540 C   0  0  0  0  0  0  0  0  0  0  0  0
    0.7777    7.0175   20.0666 C   0  0  0  0  0  0  0  0  0  0  0  0
    1.0719    6.1911   18.9666 C   0  0  0  0  0  0  0  0  0  0  0  0
  1  6  1  0  0  0  0
  2  4  1  0  0  0  0
  3  7  1  0  0  0  0
  4  5  1  0  0  0  0
  6  2  1  0  0  0  0
  7  8  1  0  0  0  0
  8  9  1  0  0  0  0
  9 10  1  0  0  0  0
 10 11  1  0  0  0  0
 10 12  1  0  0  0  0
 11 13  1  0  0  0  0
 13 15  1  0  0  0  0
 14 12  1  0  0  0  0
 15 14  1  0  0  0  0
 16 18  2  0  0  0  0
 16 22  1  0  0  0  0
 17 23  1  0  0  0  0
 17 29  1  0  0  0  0
 18 19  1  0  0  0  0
 18 26  1  0  0  0  0
 19 20  2  0  0  0  0
 20  3  1  0  0  0  0
 20 21  1  0  0  0  0
 21  5  1  0  0  0  0
 21 22  2  0  0  0  0
 23 24  2  0  0  0  0
 24 30  1  0  0  0  0
 25 26  2  0  0  0  0
 25 30  1  0  0  0  0
 26 27  1  0  0  0  0
 27 28  2  0  0  0  0
 28 29  1  0  0  0  0
 29 30  2  0  0  0  0
M  END
>  <CHROM.1>
-177.25053809,-66.92115560,-160.54260889,-162.45959582,81.74741957,146.96854811
80.42472263,-107.40415329,170.73405512,-76.07381683,-139.66624638,-2.49561017
5.20884399,15.27765206,2.11856183,-0.48782793,-1.49960663

>  <Name>
1uts_lig

>  <RI>
0

>  <Rbt.Current_Directory>
/home/itssahil/PROJECTS/Mol_Feturizer/New_Systems/rnas/1uts

>  <Rbt.Executable>
rbdock ($Id: //depot/dev/client3/rdock/2013.1/src/exe/rbdock.cxx#4 $)

>  <Rbt.Library>
libRbt.so (2013.1, Build901 2013/11/27)

>  <Rbt.Parameter_File>
/export/apps/rDock/src/rDock_2013.1_src/data/scripts/dock_solv.prm

>  <Rbt.Receptor>
prm/pocket_docking_7.prm

>  <SCORE>
-36.7132

>  <SCORE.INTER>
-35.5097

>  <SCORE.INTER.CONST>
1

>  <SCORE.INTER.POLAR>
-2.18484

>  <SCORE.INTER.ROT>
10

>  <SCORE.INTER.SOLV>
10.4445

>  <SCORE.INTER.VDW>
-30.1384

>  <SCORE.INTER.norm>
-1.18366

>  <SCORE.INTRA>
-1.23027

>  <SCORE.INTRA.DIHEDRAL>
-4.374

>  <SCORE.INTRA.DIHEDRAL.0>
18.0451

>  <SCORE.INTRA.POLAR>
-0.375966

>  <SCORE.INTRA.POLAR.0>
-0.196815

>  <SCORE.INTRA.REPUL>
0

>  <SCORE.INTRA.REPUL.0>
0

>  <SCORE.INTRA.SOLV>
0.0696842

>  <SCORE.INTRA.SOLV.lig_0>
-14.7906

>  <SCORE.INTRA.VDW>
2.20017

>  <SCORE.INTRA.VDW.0>
-0.411701

>  <SCORE.INTRA.norm>
-0.0410092

>  <SCORE.RESTR>
0.0267502

>  <SCORE.RESTR.CAVITY>
0.0267502

>  <SCORE.RESTR.norm>
0.000891675

>  <SCORE.SYSTEM>
0

>  <SCORE.SYSTEM.CONST>
0

>  <SCORE.SYSTEM.DIHEDRAL>
0

>  <SCORE.SYSTEM.SOLV>
0

>  <SCORE.SYSTEM.norm>
0

>  <SCORE.heavy>
30

>  <SCORE.norm>
-1.22377

>  <RMSD>
9.965

$$$$
1uts_lig
 OpenBabel11021811413D
libRbt.so/2013.1/901 2013/11/27
 30 33  0  0  0  0  0  0  0  0999 V2000
   -7.7438    0.9476   13.3713 N   0  0  0  0  0  0  0  0  0  0  0  0
   -6.8082    3.1557   13.9062 C   0  0  0  0  0  0  0  0  0  0  0  0
   -1.8904    3.6475   14.1688 C   0  0  0  0  0  0  0  0  0  0  0  0
   -5.8980    3.8832   14.8999 C   0  0  0  0  0  0  0  0  0  0  0  0
   -4.6649    3.1609   15.0330 O   0  0  0  0  0  0  0  0  0  0  0  0
   -7.1609    1.7716   14.4542 C   0  0  0  0  0  0  0  0  0  0  0  0
   -1.8088    4.7966   13.2388 N   0  0  0  0  0  0  0  0  0  0  0  0
   -1.7100    4.3027   11.8398 C   0  0  0  0  0  0  0  0  0  0  0  0
   -1.6465    5.4901   10.8747 C   0  0  0  0  0  0  0  0  0  0  0  0
   -1.1904    5.0217    9.5467 N   0  0  0  0  0  0  0  0  0  0  0  0
   -0.8455    6.2003    8.7006 C   0  0  0  0  0  0  0  0  0  0  0  0
   -2.2722    4.2209    8.9069 C   0  0  0  0  0  0  0  0  0  0  0  0
   -0.3750    5.7177    7.3190 C   0  0  0  0  0  0  0  0  0  0  0  0
   -1.8035    3.7402    7.5217 C   0  0  0  0  0  0  0  0  0  0  0  0
   -1.4569    4.9178    6.6781 N   0  0  0  0  0  0  0  0  0  0  0  0
   -3.3634    4.9581   18.0838 C   0  0  0  0  0  0  0  0  0  0  0  0
    1.2426    7.8160   21.4726 N   0  0  0  0  0  0  0  0  0  0  0  0
   -2.0180    5.1955   17.7138 C   0  0  0  0  0  0  0  0  0  0  0  0
   -1.5471    4.7678   16.4438 C   0  0  0  0  0  0  0  0  0  0  0  0
   -2.4236    4.1046   15.5417 C   0  0  0  0  0  0  0  0  0  0  0  0
   -3.7754    3.8517   15.9233 C   0  0  0  0  0  0  0  0  0  0  0  0
   -4.2421    4.2850   17.1946 C   0  0  0  0  0  0  0  0  0  0  0  0
    0.2209    8.1424   22.3931 C   0  0  0  0  0  0  0  0  0  0  0  0
   -1.0381    7.6982   21.9290 C   0  0  0  0  0  0  0  0  0  0  0  0
   -1.6800    6.4315   19.7965 C   0  0  0  0  0  0  0  0  0  0  0  0
   -1.1594    5.8487   18.6091 C   0  0  0  0  0  0  0  0  0  0  0  0
    0.2340    5.9232   18.3348 C   0  0  0  0  0  0  0  0  0  0  0  0
    1.1046    6.5775   19.2478 C   0  0  0  0  0  0  0  0  0  0  0  0
    0.5799    7.1508   20.4482 C   0  0  0  0  0  0  0  0  0  0  0  0
   -0.7985    7.0785   20.7210 C   0  0  0  0  0  0  0  0  0  0  0  0
  1  6  1  0  0  0  0
  2  4  1  0  0  0  0
  3  7  1  0  0  0  0
  4  5  1  0  0  0  0
  6  2  1  0  0  0  0
  7  8  1  0  0  0  0
  8  9  1  0  0  0  0
  9 10  1  0  0  0  0
 10 11  1  0  0  0  0
 10 12  1  0  0  0  0
 11 13  1  0  0  0  0
 13 15  1  0  0  0  0
 14 12  1  0  0  0  0
 15 14  1  0  0  0  0
 16 18  2  0  0  0  0
 16 22  1  0  0  0  0
 17 23  1  0  0  0  0
 17 29  1  0  0  0  0
 18 19  1  0  0  0  0
 18 26  1  0  0  0  0
 19 20  2  0  0  0  0
 20  3  1  0  0  0  0
 20 21  1  0  0  0  0
 21  5  1  0  0  0  0
 21 22  2  0  0  0  0
 23 24  2  0  0  0  0
 24 30  1  0  0  0  0
 25 26  2  0  0  0  0
 25 30  1  0  0  0  0
 26 27  1  0  0  0  0
 27 28  2  0  0  0  0
 28 29  1  0  0  0  0
 29 30  2  0  0  0  0
M  END
>  <CHROM.1>
-54.61397274,63.16181685,-162.50590006,177.87941354,-165.87589948,179.16273124
164.99724867,-167.80199901,-8.72766530,-78.13310577,-130.37682883,-2.26738912
4.95818062,14.91094601,1.77175447,-0.54917413,-1.68700267

>  <Name>
1uts_lig

>  <RI>
0

>  <Rbt.Current_Directory>
/home/itssahil/PROJECTS/Mol_Feturizer/New_Systems/rnas/1uts

>  <Rbt.Executable>
rbdock ($Id: //depot/dev/client3/rdock/2013.1/src/exe/rbdock.cxx#4 $)

>  <Rbt.Library>
libRbt.so (2013.1, Build901 2013/11/27)

>  <Rbt.Parameter_File>
/export/apps/rDock/src/rDock_2013.1_src/data/scripts/dock_solv.prm

>  <Rbt.Receptor>
prm/pocket_docking_7.prm

>  <SCORE>
-44.7995

>  <SCORE.INTER>
-41.7433

>  <SCORE.INTER.CONST>
1

>  <SCORE.INTER.POLAR>
-3.75875

>  <SCORE.INTER.ROT>
10

>  <SCORE.INTER.SOLV>
8.74347

>  <SCORE.INTER.VDW>
-28.4809

>  <SCORE.INTER.norm>
-1.39144

>  <SCORE.INTRA>
-3.05627

>  <SCORE.INTRA.DIHEDRAL>
-11.7547

>  <SCORE.INTRA.DIHEDRAL.0>
18.0451

>  <SCORE.INTRA.POLAR>
0.196815

>  <SCORE.INTRA.POLAR.0>
-0.196815

>  <SCORE.INTRA.REPUL>
0

>  <SCORE.INTRA.REPUL.0>
0

>  <SCORE.INTRA.SOLV>
-0.551055

>  <SCORE.INTRA.SOLV.lig_0>
-14.7906

>  <SCORE.INTRA.VDW>
2.42745

>  <SCORE.INTRA.VDW.0>
-0.411701

>  <SCORE.INTRA.norm>
-0.101876

>  <SCORE.RESTR>
0

>  <SCORE.RESTR.CAVITY>
0

>  <SCORE.RESTR.norm>
0

>  <SCORE.SYSTEM>
0

>  <SCORE.SYSTEM.CONST>
0

>  <SCORE.SYSTEM.DIHEDRAL>
0

>  <SCORE.SYSTEM.SOLV>
0

>  <SCORE.SYSTEM.norm>
0

>  <SCORE.heavy>
30

>  <SCORE.norm>
-1.49332

>  <RMSD>
9.968

$$$$
1uts_lig
 OpenBabel11021811413D
libRbt.so/2013.1/901 2013/11/27
 30 33  0  0  0  0  0  0  0  0999 V2000
   -7.6381    1.6024   13.6248 N   0  0  0  0  0  0  0  0  0  0  0  0
   -6.3375    3.5530   14.3603 C   0  0  0  0  0  0  0  0  0  0  0  0
   -1.7489    3.8999   13.3719 C   0  0  0  0  0  0  0  0  0  0  0  0
   -5.1967    3.9587   15.2979 C   0  0  0  0  0  0  0  0  0  0  0  0
   -4.0522    3.1317   15.0409 O   0  0  0  0  0  0  0  0  0  0  0  0
   -6.8419    2.1599   14.7413 C   0  0  0  0  0  0  0  0  0  0  0  0
   -2.6653    4.8821   12.7493 N   0  0  0  0  0  0  0  0  0  0  0  0
   -2.2276    5.1623   11.3561 C   0  0  0  0  0  0  0  0  0  0  0  0
   -2.9828    4.2521   10.3831 C   0  0  0  0  0  0  0  0  0  0  0  0
   -2.4896    4.4851    9.0071 N   0  0  0  0  0  0  0  0  0  0  0  0
   -3.4173    3.8377    8.0354 C   0  0  0  0  0  0  0  0  0  0  0  0
   -1.1173    3.9200    8.8717 C   0  0  0  0  0  0  0  0  0  0  0  0
   -2.9061    4.0744    6.6050 C   0  0  0  0  0  0  0  0  0  0  0  0
   -0.6059    4.1531    7.4386 C   0  0  0  0  0  0  0  0  0  0  0  0
   -1.5342    3.5083    6.4686 N   0  0  0  0  0  0  0  0  0  0  0  0
   -1.7122    4.3659   17.7303 C   0  0  0  0  0  0  0  0  0  0  0  0
    3.8311    6.9209   19.6843 N   0  0  0  0  0  0  0  0  0  0  0  0
   -0.5780    4.7304   16.9662 C   0  0  0  0  0  0  0  0  0  0  0  0
   -0.5964    4.5764   15.5543 C   0  0  0  0  0  0  0  0  0  0  0  0
   -1.7516    4.0601   14.9056 C   0  0  0  0  0  0  0  0  0  0  0  0
   -2.8883    3.6779   15.6797 C   0  0  0  0  0  0  0  0  0  0  0  0
   -2.8653    3.8372   17.0924 C   0  0  0  0  0  0  0  0  0  0  0  0
    3.1624    8.0410   20.2284 C   0  0  0  0  0  0  0  0  0  0  0  0
    1.8084    8.0666   19.8238 C   0  0  0  0  0  0  0  0  0  0  0  0
    0.4723    6.4448   18.3579 C   0  0  0  0  0  0  0  0  0  0  0  0
    0.5579    5.2373   17.6129 C   0  0  0  0  0  0  0  0  0  0  0  0
    1.7953    4.5413   17.5307 C   0  0  0  0  0  0  0  0  0  0  0  0
    2.9437    5.0514   18.1943 C   0  0  0  0  0  0  0  0  0  0  0  0
    2.8511    6.2591   18.9545 C   0  0  0  0  0  0  0  0  0  0  0  0
    1.6279    6.9493   19.0365 C   0  0  0  0  0  0  0  0  0  0  0  0
  1  6  1  0  0  0  0
  2  4  1  0  0  0  0
  3  7  1  0  0  0  0
  4  5  1  0  0  0  0
  6  2  1  0  0  0  0
  7  8  1  0  0  0  0
  8  9  1  0  0  0  0
  9 10  1  0  0  0  0
 10 11  1  0  0  0  0
 10 12  1  0  0  0  0
 11 13  1  0  0  0  0
 13 15  1  0  0  0  0
 14 12  1  0  0  0  0
 15 14  1  0  0  0  0
 16 18  2  0  0  0  0
 16 22  1  0  0  0  0
 17 23  1  0  0  0  0
 17 29  1  0  0  0  0
 18 19  1  0  0  0  0
 18 26  1  0  0  0  0
 19 20  2  0  0  0  0
 20  3  1  0  0  0  0
 20 21  1  0  0  0  0
 21  5  1  0  0  0  0
 21 22  2  0  0  0  0
 23 24  2  0  0  0  0
 24 30  1  0  0  0  0
 25 26  2  0  0  0  0
 25 30  1  0  0  0  0
 26 27  1  0  0  0  0
 27 28  2  0  0  0  0
 28 29  1  0  0  0  0
 29 30  2  0  0  0  0
M  END
>  <CHROM.1>
65.16612705,68.34039952,154.32810961,166.99182720,-163.23925887,94.15166346
-176.96284039,-167.44524129,-61.51692764,-110.27689027,-119.79749261,-1.57317277
4.58200697,14.28631793,2.08680400,-0.38486457,-1.63124349

>  <Name>
1uts_lig

>  <RI>
0

>  <Rbt.Current_Directory>
/home/itssahil/PROJECTS/Mol_Feturizer/New_Systems/rnas/1uts

>  <Rbt.Executable>
rbdock ($Id: //depot/dev/client3/rdock/2013.1/src/exe/rbdock.cxx#4 $)

>  <Rbt.Library>
libRbt.so (2013.1, Build901 2013/11/27)

>  <Rbt.Parameter_File>
/export/apps/rDock/src/rDock_2013.1_src/data/scripts/dock_solv.prm

>  <Rbt.Receptor>
prm/pocket_docking_6.prm

>  <SCORE>
-30.972

>  <SCORE.INTER>
-29.7358

>  <SCORE.INTER.CONST>
1

>  <SCORE.INTER.POLAR>
-1.68273

>  <SCORE.INTER.ROT>
10

>  <SCORE.INTER.SOLV>
8.92229

>  <SCORE.INTER.VDW>
-27.4556

>  <SCORE.INTER.norm>
-0.991195

>  <SCORE.INTRA>
-1.25801

>  <SCORE.INTRA.DIHEDRAL>
-3.89486

>  <SCORE.INTRA.DIHEDRAL.0>
18.0451

>  <SCORE.INTRA.POLAR>
0.196815

>  <SCORE.INTRA.POLAR.0>
-0.196815

>  <SCORE.INTRA.REPUL>
0

>  <SCORE.INTRA.REPUL.0>
0

>  <SCORE.INTRA.SOLV>
-0.380962

>  <SCORE.INTRA.SOLV.lig_0>
-14.7906

>  <SCORE.INTRA.VDW>
0.210729

>  <SCORE.INTRA.VDW.0>
-0.411701

>  <SCORE.INTRA.norm>
-0.0419336

>  <SCORE.RESTR>
0.0218671

>  <SCORE.RESTR.CAVITY>
0.0218671

>  <SCORE.RESTR.norm>
0.000728904

>  <SCORE.SYSTEM>
0

>  <SCORE.SYSTEM.CONST>
0

>  <SCORE.SYSTEM.DIHEDRAL>
0

>  <SCORE.SYSTEM.SOLV>
0

>  <SCORE.SYSTEM.norm>
0

>  <SCORE.heavy>
30

>  <SCORE.norm>
-1.0324

>  <RMSD>
9.973

$$$$
1uts_lig
 OpenBabel11021811413D
libRbt.so/2013.1/901 2013/11/27
 30 33  0  0  0  0  0  0  0  0999 V2000
   -1.9885    5.8798   12.1643 N   0  0  0  0  0  0  0  0  0  0  0  0
   -2.0230    3.4765   12.6742 C   0  0  0  0  0  0  0  0  0  0  0  0
   -2.9612    4.7357   16.8992 C   0  0  0  0  0  0  0  0  0  0  0  0
   -3.0784    3.6482   13.7706 C   0  0  0  0  0  0  0  0  0  0  0  0
   -2.8597    2.6715   14.7992 O   0  0  0  0  0  0  0  0  0  0  0  0
   -2.2328    4.5367   11.5916 C   0  0  0  0  0  0  0  0  0  0  0  0
   -4.1126    3.8065   16.9546 N   0  0  0  0  0  0  0  0  0  0  0  0
   -5.2824    4.4171   16.2694 C   0  0  0  0  0  0  0  0  0  0  0  0
   -6.5111    3.5197   16.4436 C   0  0  0  0  0  0  0  0  0  0  0  0
   -7.4093    3.6826   15.2784 N   0  0  0  0  0  0  0  0  0  0  0  0
   -8.7580    3.1439   15.6173 C   0  0  0  0  0  0  0  0  0  0  0  0
   -6.8381    2.9567   14.1089 C   0  0  0  0  0  0  0  0  0  0  0  0
   -9.6927    3.3079   14.4079 C   0  0  0  0  0  0  0  0  0  0  0  0
   -7.7752    3.1170   12.8983 C   0  0  0  0  0  0  0  0  0  0  0  0
   -9.1226    2.5810   13.2382 N   0  0  0  0  0  0  0  0  0  0  0  0
    0.7357    2.5854   15.9381 C   0  0  0  0  0  0  0  0  0  0  0  0
    5.4444    4.6009   19.8398 N   0  0  0  0  0  0  0  0  0  0  0  0
    0.7333    3.5831   16.9421 C   0  0  0  0  0  0  0  0  0  0  0  0
   -0.4680    4.2763   17.2482 C   0  0  0  0  0  0  0  0  0  0  0  0
   -1.6690    3.9693   16.5516 C   0  0  0  0  0  0  0  0  0  0  0  0
   -1.6606    2.9744   15.5283 C   0  0  0  0  0  0  0  0  0  0  0  0
   -0.4558    2.2815   15.2283 C   0  0  0  0  0  0  0  0  0  0  0  0
    5.1172    3.8337   20.9808 C   0  0  0  0  0  0  0  0  0  0  0  0
    3.8376    3.2486   20.8462 C   0  0  0  0  0  0  0  0  0  0  0  0
    2.1472    3.3531   18.9239 C   0  0  0  0  0  0  0  0  0  0  0  0
    1.9216    3.8813   17.6237 C   0  0  0  0  0  0  0  0  0  0  0  0
    2.9057    4.7066   17.0132 C   0  0  0  0  0  0  0  0  0  0  0  0
    4.1138    5.0006   17.7014 C   0  0  0  0  0  0  0  0  0  0  0  0
    4.3439    4.4563   19.0037 C   0  0  0  0  0  0  0  0  0  0  0  0
    3.3711    3.6401   19.6094 C   0  0  0  0  0  0  0  0  0  0  0  0
  1  6  1  0  0  0  0
  2  4  1  0  0  0  0
  3  7  1  0  0  0  0
  4  5  1  0  0  0  0
  6  2  1  0  0  0  0
  7  8  1  0  0  0  0
  8  9  1  0  0  0  0
  9 10  1  0  0  0  0
 10 11  1  0  0  0  0
 10 12  1  0  0  0  0
 11 13  1  0  0  0  0
 13 15  1  0  0  0  0
 14 12  1  0  0  0  0
 15 14  1  0  0  0  0
 16 18  2  0  0  0  0
 16 22  1  0  0  0  0
 17 23  1  0  0  0  0
 17 29  1  0  0  0  0
 18 19  1  0  0  0  0
 18 26  1  0  0  0  0
 19 20  2  0  0  0  0
 20  3  1  0  0  0  0
 20 21  1  0  0  0  0
 21  5  1  0  0  0  0
 21 22  2  0  0  0  0
 23 24  2  0  0  0  0
 24 30  1  0  0  0  0
 25 26  2  0  0  0  0
 25 30  1  0  0  0  0
 26 27  1  0  0  0  0
 27 28  2  0  0  0  0
 28 29  1  0  0  0  0
 29 30  2  0  0  0  0
M  END
>  <CHROM.1>
-74.81163075,-178.69508288,-136.68651870,69.92235410,64.96562885,-174.49764648
-150.55531145,-163.44322835,-100.70028192,-137.59270263,80.21392333,-1.88634531
3.73838207,16.08825991,-2.74150758,0.11232097,1.69357625

>  <Name>
1uts_lig

>  <RI>
0

>  <Rbt.Current_Directory>
/home/itssahil/PROJECTS/Mol_Feturizer/New_Systems/rnas/1uts

>  <Rbt.Executable>
rbdock ($Id: //depot/dev/client3/rdock/2013.1/src/exe/rbdock.cxx#4 $)

>  <Rbt.Library>
libRbt.so (2013.1, Build901 2013/11/27)

>  <Rbt.Parameter_File>
/export/apps/rDock/src/rDock_2013.1_src/data/scripts/dock_solv.prm

>  <Rbt.Receptor>
prm/pocket_docking_5.prm

>  <SCORE>
-41.7934

>  <SCORE.INTER>
-40.041

>  <SCORE.INTER.CONST>
1

>  <SCORE.INTER.POLAR>
-3.80164

>  <SCORE.INTER.ROT>
10

>  <SCORE.INTER.SOLV>
9.03173

>  <SCORE.INTER.VDW>
-27.2991

>  <SCORE.INTER.norm>
-1.3347

>  <SCORE.INTRA>
-1.75236

>  <SCORE.INTRA.DIHEDRAL>
-0.621513

>  <SCORE.INTRA.DIHEDRAL.0>
18.0451

>  <SCORE.INTRA.POLAR>
-0.245413

>  <SCORE.INTRA.POLAR.0>
-0.196815

>  <SCORE.INTRA.REPUL>
0

>  <SCORE.INTRA.REPUL.0>
0

>  <SCORE.INTRA.SOLV>
-0.0731067

>  <SCORE.INTRA.SOLV.lig_0>
-14.7906

>  <SCORE.INTRA.VDW>
-0.570641

>  <SCORE.INTRA.VDW.0>
-0.411701

>  <SCORE.INTRA.norm>
-0.0584118

>  <SCORE.RESTR>
0

>  <SCORE.RESTR.CAVITY>
0

>  <SCORE.RESTR.norm>
0

>  <SCORE.SYSTEM>
0

>  <SCORE.SYSTEM.CONST>
0

>  <SCORE.SYSTEM.DIHEDRAL>
0

>  <SCORE.SYSTEM.SOLV>
0

>  <SCORE.SYSTEM.norm>
0

>  <SCORE.heavy>
30

>  <SCORE.norm>
-1.39311

>  <RMSD>
9.979

$$$$
1uts_lig
 OpenBabel11021811413D
libRbt.so/2013.1/901 2013/11/27
 30 33  0  0  0  0  0  0  0  0999 V2000
   -3.5217    4.0499   10.7737 N   0  0  0  0  0  0  0  0  0  0  0  0
   -2.3267    4.6202   12.8434 C   0  0  0  0  0  0  0  0  0  0  0  0
   -2.2255    3.4001   17.6496 C   0  0  0  0  0  0  0  0  0  0  0  0
   -1.3372    4.0344   13.8549 C   0  0  0  0  0  0  0  0  0  0  0  0
   -1.4890    4.7069   15.1137 O   0  0  0  0  0  0  0  0  0  0  0  0
   -2.2911    3.7947   11.5560 C   0  0  0  0  0  0  0  0  0  0  0  0
   -3.0281    4.6419   17.5721 N   0  0  0  0  0  0  0  0  0  0  0  0
   -3.9149    4.5915   16.3797 C   0  0  0  0  0  0  0  0  0  0  0  0
   -5.0670    3.6146   16.6320 C   0  0  0  0  0  0  0  0  0  0  0  0
   -6.0851    3.7684   15.5686 N   0  0  0  0  0  0  0  0  0  0  0  0
   -7.2871    2.9574   15.9168 C   0  0  0  0  0  0  0  0  0  0  0  0
   -5.5131    3.3185   14.2681 C   0  0  0  0  0  0  0  0  0  0  0  0
   -8.3454    3.1116   14.8125 C   0  0  0  0  0  0  0  0  0  0  0  0
   -6.5732    3.4690   13.1622 C   0  0  0  0  0  0  0  0  0  0  0  0
   -7.7743    2.6607   13.5118 N   0  0  0  0  0  0  0  0  0  0  0  0
    1.9503    4.1884   16.5746 C   0  0  0  0  0  0  0  0  0  0  0  0
    5.8598    2.4066   21.3374 N   0  0  0  0  0  0  0  0  0  0  0  0
    1.6375    3.5744   17.8109 C   0  0  0  0  0  0  0  0  0  0  0  0
    0.2823    3.3223   18.1533 C   0  0  0  0  0  0  0  0  0  0  0  0
   -0.7612    3.6817   17.2567 C   0  0  0  0  0  0  0  0  0  0  0  0
   -0.4446    4.3155   16.0177 C   0  0  0  0  0  0  0  0  0  0  0  0
    0.9141    4.5627   15.6790 C   0  0  0  0  0  0  0  0  0  0  0  0
    6.5511    3.6310   21.1941 C   0  0  0  0  0  0  0  0  0  0  0  0
    5.8929    4.4782   20.2740 C   0  0  0  0  0  0  0  0  0  0  0  0
    3.7342    4.1354   18.9372 C   0  0  0  0  0  0  0  0  0  0  0  0
    2.6716    3.2242   18.6904 C   0  0  0  0  0  0  0  0  0  0  0  0
    2.6558    1.9604   19.3422 C   0  0  0  0  0  0  0  0  0  0  0  0
    3.6998    1.6103   20.2406 C   0  0  0  0  0  0  0  0  0  0  0  0
    4.7602    2.5347   20.4974 C   0  0  0  0  0  0  0  0  0  0  0  0
    4.7778    3.7853   19.8531 C   0  0  0  0  0  0  0  0  0  0  0  0
  1  6  1  0  0  0  0
  2  4  1  0  0  0  0
  3  7  1  0  0  0  0
  4  5  1  0  0  0  0
  6  2  1  0  0  0  0
  7  8  1  0  0  0  0
  8  9  1  0  0  0  0
  9 10  1  0  0  0  0
 10 11  1  0  0  0  0
 10 12  1  0  0  0  0
 11 13  1  0  0  0  0
 13 15  1  0  0  0  0
 14 12  1  0  0  0  0
 15 14  1  0  0  0  0
 16 18  2  0  0  0  0
 16 22  1  0  0  0  0
 17 23  1  0  0  0  0
 17 29  1  0  0  0  0
 18 19  1  0  0  0  0
 18 26  1  0  0  0  0
 19 20  2  0  0  0  0
 20  3  1  0  0  0  0
 20 21  1  0  0  0  0
 21  5  1  0  0  0  0
 21 22  2  0  0  0  0
 23 24  2  0  0  0  0
 24 30  1  0  0  0  0
 25 26  2  0  0  0  0
 25 30  1  0  0  0  0
 26 27  1  0  0  0  0
 27 28  2  0  0  0  0
 28 29  1  0  0  0  0
 29 30  2  0  0  0  0
M  END
>  <CHROM.1>
-38.32815052,-173.03749573,106.51337825,-171.51375864,161.09700994,73.62833192
168.72058459,-172.20509340,44.37634677,125.29694300,-119.71471541,-0.98381854
3.61740547,16.57287789,-2.62323776,0.08682453,1.78016818

>  <Name>
1uts_lig

>  <RI>
0

>  <Rbt.Current_Directory>
/home/itssahil/PROJECTS/Mol_Feturizer/New_Systems/rnas/1uts

>  <Rbt.Executable>
rbdock ($Id: //depot/dev/client3/rdock/2013.1/src/exe/rbdock.cxx#4 $)

>  <Rbt.Library>
libRbt.so (2013.1, Build901 2013/11/27)

>  <Rbt.Parameter_File>
/export/apps/rDock/src/rDock_2013.1_src/data/scripts/dock_solv.prm

>  <Rbt.Receptor>
prm/pocket_docking_3.prm

>  <SCORE>
-19.2422

>  <SCORE.INTER>
-19.159

>  <SCORE.INTER.CONST>
1

>  <SCORE.INTER.POLAR>
-0.536713

>  <SCORE.INTER.ROT>
10

>  <SCORE.INTER.SOLV>
8.83302

>  <SCORE.INTER.VDW>
-24.1946

>  <SCORE.INTER.norm>
-0.638634

>  <SCORE.INTRA>
-0.0832203

>  <SCORE.INTRA.DIHEDRAL>
-4.34622

>  <SCORE.INTRA.DIHEDRAL.0>
18.0451

>  <SCORE.INTRA.POLAR>
0.196815

>  <SCORE.INTRA.POLAR.0>
-0.196815

>  <SCORE.INTRA.REPUL>
0

>  <SCORE.INTRA.REPUL.0>
0

>  <SCORE.INTRA.SOLV>
-0.128252

>  <SCORE.INTRA.SOLV.lig_0>
-14.7906

>  <SCORE.INTRA.VDW>
1.48484

>  <SCORE.INTRA.VDW.0>
-0.411701

>  <SCORE.INTRA.norm>
-0.00277401

>  <SCORE.RESTR>
0

>  <SCORE.RESTR.CAVITY>
0

>  <SCORE.RESTR.norm>
0

>  <SCORE.SYSTEM>
0

>  <SCORE.SYSTEM.CONST>
0

>  <SCORE.SYSTEM.DIHEDRAL>
0

>  <SCORE.SYSTEM.SOLV>
0

>  <SCORE.SYSTEM.norm>
0

>  <SCORE.heavy>
30

>  <SCORE.norm>
-0.641408

>  <RMSD>
9.982

$$$$
1uts_lig
 OpenBabel11021811413D
libRbt.so/2013.1/901 2013/11/27
 30 33  0  0  0  0  0  0  0  0999 V2000
   -2.1872    7.8269   10.0106 N   0  0  0  0  0  0  0  0  0  0  0  0
   -2.8833    5.6013   10.7849 C   0  0  0  0  0  0  0  0  0  0  0  0
   -4.6480    3.3895   14.2624 C   0  0  0  0  0  0  0  0  0  0  0  0
   -2.5414    4.4577   11.7443 C   0  0  0  0  0  0  0  0  0  0  0  0
   -2.4576    4.9683   13.0830 O   0  0  0  0  0  0  0  0  0  0  0  0
   -1.8697    6.7341   10.9573 C   0  0  0  0  0  0  0  0  0  0  0  0
   -5.2980    4.1362   15.3633 N   0  0  0  0  0  0  0  0  0  0  0  0
   -5.8714    3.1799   16.3470 C   0  0  0  0  0  0  0  0  0  0  0  0
   -7.3245    3.5574   16.6496 C   0  0  0  0  0  0  0  0  0  0  0  0
   -8.1023    3.5717   15.3903 N   0  0  0  0  0  0  0  0  0  0  0  0
   -9.5584    3.5979   15.7112 C   0  0  0  0  0  0  0  0  0  0  0  0
   -7.7679    2.3604   14.5892 C   0  0  0  0  0  0  0  0  0  0  0  0
  -10.3696    3.6089   14.4055 C   0  0  0  0  0  0  0  0  0  0  0  0
   -8.5824    2.3685   13.2831 C   0  0  0  0  0  0  0  0  0  0  0  0
  -10.0365    2.3970   13.6044 N   0  0  0  0  0  0  0  0  0  0  0  0
   -0.4452    2.6147   15.2376 C   0  0  0  0  0  0  0  0  0  0  0  0
   -0.1774   -2.0487   19.6867 N   0  0  0  0  0  0  0  0  0  0  0  0
   -1.4690    1.8450   15.8398 C   0  0  0  0  0  0  0  0  0  0  0  0
   -2.8288    2.1016   15.5197 C   0  0  0  0  0  0  0  0  0  0  0  0
   -3.1650    3.1272   14.5939 C   0  0  0  0  0  0  0  0  0  0  0  0
   -2.1319    3.9129   14.0002 C   0  0  0  0  0  0  0  0  0  0  0  0
   -0.7723    3.6495   14.3220 C   0  0  0  0  0  0  0  0  0  0  0  0
   -0.2520   -1.2068   20.8195 C   0  0  0  0  0  0  0  0  0  0  0  0
   -0.5694    0.1183   20.4442 C   0  0  0  0  0  0  0  0  0  0  0  0
   -1.0328    1.1357   18.1390 C   0  0  0  0  0  0  0  0  0  0  0  0
   -1.1300    0.8365   16.7528 C   0  0  0  0  0  0  0  0  0  0  0  0
   -0.8897   -0.4883   16.2950 C   0  0  0  0  0  0  0  0  0  0  0  0
   -0.5552   -1.5116   17.2226 C   0  0  0  0  0  0  0  0  0  0  0  0
   -0.4718   -1.2105   18.6181 C   0  0  0  0  0  0  0  0  0  0  0  0
   -0.7086    0.0997   19.0727 C   0  0  0  0  0  0  0  0  0  0  0  0
  1  6  1  0  0  0  0
  2  4  1  0  0  0  0
  3  7  1  0  0  0  0
  4  5  1  0  0  0  0
  6  2  1  0  0  0  0
  7  8  1  0  0  0  0
  8  9  1  0  0  0  0
  9 10  1  0  0  0  0
 10 11  1  0  0  0  0
 10 12  1  0  0  0  0
 11 13  1  0  0  0  0
 13 15  1  0  0  0  0
 14 12  1  0  0  0  0
 15 14  1  0  0  0  0
 16 18  2  0  0  0  0
 16 22  1  0  0  0  0
 17 23  1  0  0  0  0
 17 29  1  0  0  0  0
 18 19  1  0  0  0  0
 18 26  1  0  0  0  0
 19 20  2  0  0  0  0
 20  3  1  0  0  0  0
 20 21  1  0  0  0  0
 21  5  1  0  0  0  0
 21 22  2  0  0  0  0
 23 24  2  0  0  0  0
 24 30  1  0  0  0  0
 25 26  2  0  0  0  0
 25 30  1  0  0  0  0
 26 27  1  0  0  0  0
 27 28  2  0  0  0  0
 28 29  1  0  0  0  0
 29 30  2  0  0  0  0
M  END
>  <CHROM.1>
50.90838700,54.34738756,-90.12841523,-179.75316527,178.92067776,-130.36690614
57.34095223,165.91894001,90.32155315,76.75564997,-88.15015212,-3.67678241
2.60765943,15.30490472,-2.26049886,-0.02433719,2.28155367

>  <Name>
1uts_lig

>  <RI>
0

>  <Rbt.Current_Directory>
/home/itssahil/PROJECTS/Mol_Feturizer/New_Systems/rnas/1uts

>  <Rbt.Executable>
rbdock ($Id: //depot/dev/client3/rdock/2013.1/src/exe/rbdock.cxx#4 $)

>  <Rbt.Library>
libRbt.so (2013.1, Build901 2013/11/27)

>  <Rbt.Parameter_File>
/export/apps/rDock/src/rDock_2013.1_src/data/scripts/dock_solv.prm

>  <Rbt.Receptor>
prm/pocket_docking_5.prm

>  <SCORE>
-32.548

>  <SCORE.INTER>
-35.9027

>  <SCORE.INTER.CONST>
1

>  <SCORE.INTER.POLAR>
-2.71323

>  <SCORE.INTER.ROT>
10

>  <SCORE.INTER.SOLV>
9.36352

>  <SCORE.INTER.VDW>
-28.2789

>  <SCORE.INTER.norm>
-1.19676

>  <SCORE.INTRA>
3.35467

>  <SCORE.INTRA.DIHEDRAL>
-1.69273

>  <SCORE.INTRA.DIHEDRAL.0>
18.0451

>  <SCORE.INTRA.POLAR>
0.196815

>  <SCORE.INTRA.POLAR.0>
-0.196815

>  <SCORE.INTRA.REPUL>
0

>  <SCORE.INTRA.REPUL.0>
0

>  <SCORE.INTRA.SOLV>
-0.21811

>  <SCORE.INTRA.SOLV.lig_0>
-14.7906

>  <SCORE.INTRA.VDW>
3.64092

>  <SCORE.INTRA.VDW.0>
-0.411701

>  <SCORE.INTRA.norm>
0.111822

>  <SCORE.RESTR>
0

>  <SCORE.RESTR.CAVITY>
0

>  <SCORE.RESTR.norm>
0

>  <SCORE.SYSTEM>
0

>  <SCORE.SYSTEM.CONST>
0

>  <SCORE.SYSTEM.DIHEDRAL>
0

>  <SCORE.SYSTEM.SOLV>
0

>  <SCORE.SYSTEM.norm>
0

>  <SCORE.heavy>
30

>  <SCORE.norm>
-1.08493

>  <RMSD>
9.983

$$$$
1uts_lig
 OpenBabel11021811413D
libRbt.so/2013.1/901 2013/11/27
 30 33  0  0  0  0  0  0  0  0999 V2000
   -9.1820    3.9051   16.9263 N   0  0  0  0  0  0  0  0  0  0  0  0
   -7.0248    3.8876   15.7500 C   0  0  0  0  0  0  0  0  0  0  0  0
   -1.9689    3.7311   14.0444 C   0  0  0  0  0  0  0  0  0  0  0  0
   -5.8602    2.9980   15.3057 C   0  0  0  0  0  0  0  0  0  0  0  0
   -4.8365    3.8130   14.7161 O   0  0  0  0  0  0  0  0  0  0  0  0
   -8.0590    3.0421   16.4955 C   0  0  0  0  0  0  0  0  0  0  0  0
   -1.8251    4.8939   13.1392 N   0  0  0  0  0  0  0  0  0  0  0  0
   -1.7333    4.4243   11.7314 C   0  0  0  0  0  0  0  0  0  0  0  0
   -1.5429    5.6229   10.7972 C   0  0  0  0  0  0  0  0  0  0  0  0
   -1.0903    5.1466    9.4708 N   0  0  0  0  0  0  0  0  0  0  0  0
   -0.7719    6.3208    8.6084 C   0  0  0  0  0  0  0  0  0  0  0  0
   -2.1641    4.3209    8.8495 C   0  0  0  0  0  0  0  0  0  0  0  0
   -0.3050    5.8299    7.2284 C   0  0  0  0  0  0  0  0  0  0  0  0
   -1.6991    3.8319    7.4659 C   0  0  0  0  0  0  0  0  0  0  0  0
   -1.3790    5.0050    6.6059 N   0  0  0  0  0  0  0  0  0  0  0  0
   -3.3916    5.0236   17.9839 C   0  0  0  0  0  0  0  0  0  0  0  0
    1.7729    6.6231   21.5366 N   0  0  0  0  0  0  0  0  0  0  0  0
   -2.0042    4.9814   17.7070 C   0  0  0  0  0  0  0  0  0  0  0  0
   -1.5499    4.5612   16.4285 C   0  0  0  0  0  0  0  0  0  0  0  0
   -2.4845    4.1856   15.4248 C   0  0  0  0  0  0  0  0  0  0  0  0
   -3.8824    4.2134   15.7114 C   0  0  0  0  0  0  0  0  0  0  0  0
   -4.3314    4.6379   16.9920 C   0  0  0  0  0  0  0  0  0  0  0  0
    2.6282    7.3184   20.6519 C   0  0  0  0  0  0  0  0  0  0  0  0
    2.1528    7.2394   19.3232 C   0  0  0  0  0  0  0  0  0  0  0  0
    0.0654    6.1079   18.3607 C   0  0  0  0  0  0  0  0  0  0  0  0
   -1.0887    5.3517   18.7022 C   0  0  0  0  0  0  0  0  0  0  0  0
   -1.3164    4.9778   20.0552 C   0  0  0  0  0  0  0  0  0  0  0  0
   -0.3924    5.3617   21.0644 C   0  0  0  0  0  0  0  0  0  0  0  0
    0.7605    6.1343   20.7197 C   0  0  0  0  0  0  0  0  0  0  0  0
    0.9878    6.5047   19.3816 C   0  0  0  0  0  0  0  0  0  0  0  0
  1  6  1  0  0  0  0
  2  4  1  0  0  0  0
  3  7  1  0  0  0  0
  4  5  1  0  0  0  0
  6  2  1  0  0  0  0
  7  8  1  0  0  0  0
  8  9  1  0  0  0  0
  9 10  1  0  0  0  0
 10 11  1  0  0  0  0
 10 12  1  0  0  0  0
 11 13  1  0  0  0  0
 13 15  1  0  0  0  0
 14 12  1  0  0  0  0
 15 14  1  0  0  0  0
 16 18  2  0  0  0  0
 16 22  1  0  0  0  0
 17 23  1  0  0  0  0
 17 29  1  0  0  0  0
 18 19  1  0  0  0  0
 18 26  1  0  0  0  0
 19 20  2  0  0  0  0
 20  3  1  0  0  0  0
 20 21  1  0  0  0  0
 21  5  1  0  0  0  0
 21 22  2  0  0  0  0
 23 24  2  0  0  0  0
 24 30  1  0  0  0  0
 25 26  2  0  0  0  0
 25 30  1  0  0  0  0
 26 27  1  0  0  0  0
 27 28  2  0  0  0  0
 28 29  1  0  0  0  0
 29 30  2  0  0  0  0
M  END
>  <CHROM.1>
62.73930988,-174.74442568,-162.98605598,91.74254798,179.88168322,-178.33355595
164.79810462,-174.24389041,-140.38857197,-89.28114330,137.28572771,-2.14855975
4.97358167,15.04968265,1.43975280,0.32055130,1.52450979

>  <Name>
1uts_lig

>  <RI>
0

>  <Rbt.Current_Directory>
/home/itssahil/PROJECTS/Mol_Feturizer/New_Systems/rnas/1uts

>  <Rbt.Executable>
rbdock ($Id: //depot/dev/client3/rdock/2013.1/src/exe/rbdock.cxx#4 $)

>  <Rbt.Library>
libRbt.so (2013.1, Build901 2013/11/27)

>  <Rbt.Parameter_File>
/export/apps/rDock/src/rDock_2013.1_src/data/scripts/dock_solv.prm

>  <Rbt.Receptor>
prm/pocket_docking_7.prm

>  <SCORE>
-38.6436

>  <SCORE.INTER>
-37.7629

>  <SCORE.INTER.CONST>
1

>  <SCORE.INTER.POLAR>
-3.01903

>  <SCORE.INTER.ROT>
10

>  <SCORE.INTER.SOLV>
8.9616

>  <SCORE.INTER.VDW>
-28.3657

>  <SCORE.INTER.norm>
-1.25876

>  <SCORE.INTRA>
-0.88067

>  <SCORE.INTRA.DIHEDRAL>
-7.58007

>  <SCORE.INTRA.DIHEDRAL.0>
18.0451

>  <SCORE.INTRA.POLAR>
0.196815

>  <SCORE.INTRA.POLAR.0>
-0.196815

>  <SCORE.INTRA.REPUL>
0

>  <SCORE.INTRA.REPUL.0>
0

>  <SCORE.INTRA.SOLV>
-0.61361

>  <SCORE.INTRA.SOLV.lig_0>
-14.7906

>  <SCORE.INTRA.VDW>
2.547

>  <SCORE.INTRA.VDW.0>
-0.411701

>  <SCORE.INTRA.norm>
-0.0293557

>  <SCORE.RESTR>
0

>  <SCORE.RESTR.CAVITY>
0

>  <SCORE.RESTR.norm>
0

>  <SCORE.SYSTEM>
0

>  <SCORE.SYSTEM.CONST>
0

>  <SCORE.SYSTEM.DIHEDRAL>
0

>  <SCORE.SYSTEM.SOLV>
0

>  <SCORE.SYSTEM.norm>
0

>  <SCORE.heavy>
30

>  <SCORE.norm>
-1.28812

>  <RMSD>
9.984

$$$$
1uts_lig
 OpenBabel11021811413D
libRbt.so/2013.1/901 2013/11/27
 30 33  0  0  0  0  0  0  0  0999 V2000
   -6.2896    4.1077   16.9978 N   0  0  0  0  0  0  0  0  0  0  0  0
   -5.5904    2.4347   15.3397 C   0  0  0  0  0  0  0  0  0  0  0  0
   -2.3717    4.4071   14.4214 C   0  0  0  0  0  0  0  0  0  0  0  0
   -4.1436    2.5591   15.8263 C   0  0  0  0  0  0  0  0  0  0  0  0
   -3.3053    1.6855   15.0557 O   0  0  0  0  0  0  0  0  0  0  0  0
   -6.3197    3.7614   15.5588 C   0  0  0  0  0  0  0  0  0  0  0  0
   -2.7826    4.0868   13.0355 N   0  0  0  0  0  0  0  0  0  0  0  0
   -1.6878    4.4415   12.0939 C   0  0  0  0  0  0  0  0  0  0  0  0
   -2.1283    4.1536   10.6556 C   0  0  0  0  0  0  0  0  0  0  0  0
   -3.2443    5.0556   10.2923 N   0  0  0  0  0  0  0  0  0  0  0  0
   -3.7808    4.6622    8.9577 C   0  0  0  0  0  0  0  0  0  0  0  0
   -2.7527    6.4621   10.2612 C   0  0  0  0  0  0  0  0  0  0  0  0
   -4.9378    5.5994    8.5753 C   0  0  0  0  0  0  0  0  0  0  0  0
   -3.9095    7.4012    9.8747 C   0  0  0  0  0  0  0  0  0  0  0  0
   -4.4464    7.0062    8.5428 N   0  0  0  0  0  0  0  0  0  0  0  0
    0.3374    1.3282   15.9693 C   0  0  0  0  0  0  0  0  0  0  0  0
    6.2328    4.0031   16.3772 N   0  0  0  0  0  0  0  0  0  0  0  0
    0.8295    2.6187   15.6600 C   0  0  0  0  0  0  0  0  0  0  0  0
   -0.0537    3.6116   15.1583 C   0  0  0  0  0  0  0  0  0  0  0  0
   -1.4312    3.3144   14.9687 C   0  0  0  0  0  0  0  0  0  0  0  0
   -1.9221    2.0076   15.2659 C   0  0  0  0  0  0  0  0  0  0  0  0
   -1.0340    1.0186   15.7707 C   0  0  0  0  0  0  0  0  0  0  0  0
    6.1373    5.3316   15.9042 C   0  0  0  0  0  0  0  0  0  0  0  0
    4.8191    5.6262   15.4881 C   0  0  0  0  0  0  0  0  0  0  0  0
    2.7014    4.1842   15.5030 C   0  0  0  0  0  0  0  0  0  0  0  0
    2.1892    2.9040   15.8482 C   0  0  0  0  0  0  0  0  0  0  0  0
    3.0564    1.9161   16.3907 C   0  0  0  0  0  0  0  0  0  0  0  0
    4.4326    2.2096   16.5896 C   0  0  0  0  0  0  0  0  0  0  0  0
    4.9421    3.5031   16.2543 C   0  0  0  0  0  0  0  0  0  0  0  0
    4.0857    4.4814   15.7169 C   0  0  0  0  0  0  0  0  0  0  0  0
  1  6  1  0  0  0  0
  2  4  1  0  0  0  0
  3  7  1  0  0  0  0
  4  5  1  0  0  0  0
  6  2  1  0  0  0  0
  7  8  1  0  0  0  0
  8  9  1  0  0  0  0
  9 10  1  0  0  0  0
 10 11  1  0  0  0  0
 10 12  1  0  0  0  0
 11 13  1  0  0  0  0
 13 15  1  0  0  0  0
 14 12  1  0  0  0  0
 15 14  1  0  0  0  0
 16 18  2  0  0  0  0
 16 22  1  0  0  0  0
 17 23  1  0  0  0  0
 17 29  1  0  0  0  0
 18 19  1  0  0  0  0
 18 26  1  0  0  0  0
 19 20  2  0  0  0  0
 20  3  1  0  0  0  0
 20 21  1  0  0  0  0
 21  5  1  0  0  0  0
 21 22  2  0  0  0  0
 23 24  2  0  0  0  0
 24 30  1  0  0  0  0
 25 26  2  0  0  0  0
 25 30  1  0  0  0  0
 26 27  1  0  0  0  0
 27 28  2  0  0  0  0
 28 29  1  0  0  0  0
 29 30  2  0  0  0  0
M  END
>  <CHROM.1>
68.41194600,-150.31040075,-78.72933877,166.36156749,-58.96860306,-178.15961629
65.58339464,-173.09776090,178.11914441,109.16622481,-58.65538209,-0.94693626
3.90866703,13.99097032,2.62583362,-0.12642463,-1.04659931

>  <Name>
1uts_lig

>  <RI>
0

>  <Rbt.Current_Directory>
/home/itssahil/PROJECTS/Mol_Feturizer/New_Systems/rnas/1uts

>  <Rbt.Executable>
rbdock ($Id: //depot/dev/client3/rdock/2013.1/src/exe/rbdock.cxx#4 $)

>  <Rbt.Library>
libRbt.so (2013.1, Build901 2013/11/27)

>  <Rbt.Parameter_File>
/export/apps/rDock/src/rDock_2013.1_src/data/scripts/dock_solv.prm

>  <Rbt.Receptor>
prm/pocket_docking_5.prm

>  <SCORE>
-28.6864

>  <SCORE.INTER>
-28.1064

>  <SCORE.INTER.CONST>
1

>  <SCORE.INTER.POLAR>
-0.22446

>  <SCORE.INTER.ROT>
10

>  <SCORE.INTER.SOLV>
9.42175

>  <SCORE.INTER.VDW>
-31.3966

>  <SCORE.INTER.norm>
-0.936878

>  <SCORE.INTRA>
-0.617883

>  <SCORE.INTRA.DIHEDRAL>
-9.00921

>  <SCORE.INTRA.DIHEDRAL.0>
18.0451

>  <SCORE.INTRA.POLAR>
0.196815

>  <SCORE.INTRA.POLAR.0>
-0.196815

>  <SCORE.INTRA.REPUL>
0

>  <SCORE.INTRA.REPUL.0>
0

>  <SCORE.INTRA.SOLV>
-0.0024318

>  <SCORE.INTRA.SOLV.lig_0>
-14.7906

>  <SCORE.INTRA.VDW>
3.21877

>  <SCORE.INTRA.VDW.0>
-0.411701

>  <SCORE.INTRA.norm>
-0.0205961

>  <SCORE.RESTR>
0.0378439

>  <SCORE.RESTR.CAVITY>
0.0378439

>  <SCORE.RESTR.norm>
0.00126146

>  <SCORE.SYSTEM>
0

>  <SCORE.SYSTEM.CONST>
0

>  <SCORE.SYSTEM.DIHEDRAL>
0

>  <SCORE.SYSTEM.SOLV>
0

>  <SCORE.SYSTEM.norm>
0

>  <SCORE.heavy>
30

>  <SCORE.norm>
-0.956213

>  <RMSD>
9.985

$$$$
1uts_lig
 OpenBabel11021811413D
libRbt.so/2013.1/901 2013/11/27
 30 33  0  0  0  0  0  0  0  0999 V2000
   -7.8536    0.6010   13.6803 N   0  0  0  0  0  0  0  0  0  0  0  0
   -6.3748   -0.6471   15.1945 C   0  0  0  0  0  0  0  0  0  0  0  0
   -4.5944    3.5831   14.2951 C   0  0  0  0  0  0  0  0  0  0  0  0
   -5.8333    0.6045   15.8913 C   0  0  0  0  0  0  0  0  0  0  0  0
   -4.4993    0.8662   15.4312 O   0  0  0  0  0  0  0  0  0  0  0  0
   -6.6968   -0.3211   13.7349 C   0  0  0  0  0  0  0  0  0  0  0  0
   -3.5685    4.0108   13.3170 N   0  0  0  0  0  0  0  0  0  0  0  0
   -4.1015    3.8659   11.9364 C   0  0  0  0  0  0  0  0  0  0  0  0
   -2.9764    4.0869   10.9212 C   0  0  0  0  0  0  0  0  0  0  0  0
   -2.7086    5.5368   10.7904 N   0  0  0  0  0  0  0  0  0  0  0  0
   -3.7057    6.1396    9.8595 C   0  0  0  0  0  0  0  0  0  0  0  0
   -1.3257    5.7392   10.2733 C   0  0  0  0  0  0  0  0  0  0  0  0
   -3.4283    7.6450    9.7182 C   0  0  0  0  0  0  0  0  0  0  0  0
   -1.0481    7.2463   10.1278 C   0  0  0  0  0  0  0  0  0  0  0  0
   -2.0457    7.8480    9.2000 N   0  0  0  0  0  0  0  0  0  0  0  0
   -2.7230    2.7548   18.1715 C   0  0  0  0  0  0  0  0  0  0  0  0
   -0.1510    8.2297   20.4231 N   0  0  0  0  0  0  0  0  0  0  0  0
   -2.7318    4.0715   17.6524 C   0  0  0  0  0  0  0  0  0  0  0  0
   -3.3395    4.3329   16.3955 C   0  0  0  0  0  0  0  0  0  0  0  0
   -3.9418    3.2767   15.6583 C   0  0  0  0  0  0  0  0  0  0  0  0
   -3.9174    1.9468   16.1760 C   0  0  0  0  0  0  0  0  0  0  0  0
   -3.3104    1.6917   17.4361 C   0  0  0  0  0  0  0  0  0  0  0  0
    1.0838    8.1555   19.7393 C   0  0  0  0  0  0  0  0  0  0  0  0
    1.0666    7.1212   18.7763 C   0  0  0  0  0  0  0  0  0  0  0  0
   -0.7906    5.4844   18.1162 C   0  0  0  0  0  0  0  0  0  0  0  0
   -2.1346    5.1075   18.3844 C   0  0  0  0  0  0  0  0  0  0  0  0
   -2.8741    5.7874   19.3909 C   0  0  0  0  0  0  0  0  0  0  0  0
   -2.2707    6.8436   20.1258 C   0  0  0  0  0  0  0  0  0  0  0  0
   -0.9228    7.2296   19.8441 C   0  0  0  0  0  0  0  0  0  0  0  0
   -0.1895    6.5577   18.8490 C   0  0  0  0  0  0  0  0  0  0  0  0
  1  6  1  0  0  0  0
  2  4  1  0  0  0  0
  3  7  1  0  0  0  0
  4  5  1  0  0  0  0
  6  2  1  0  0  0  0
  7  8  1  0  0  0  0
  8  9  1  0  0  0  0
  9 10  1  0  0  0  0
 10 11  1  0  0  0  0
 10 12  1  0  0  0  0
 11 13  1  0  0  0  0
 13 15  1  0  0  0  0
 14 12  1  0  0  0  0
 15 14  1  0  0  0  0
 16 18  2  0  0  0  0
 16 22  1  0  0  0  0
 17 23  1  0  0  0  0
 17 29  1  0  0  0  0
 18 19  1  0  0  0  0
 18 26  1  0  0  0  0
 19 20  2  0  0  0  0
 20  3  1  0  0  0  0
 20 21  1  0  0  0  0
 21  5  1  0  0  0  0
 21 22  2  0  0  0  0
 23 24  2  0  0  0  0
 24 30  1  0  0  0  0
 25 26  2  0  0  0  0
 25 30  1  0  0  0  0
 26 27  1  0  0  0  0
 27 28  2  0  0  0  0
 28 29  1  0  0  0  0
 29 30  2  0  0  0  0
M  END
>  <CHROM.1>
61.58430609,-72.99335299,161.24655828,-173.71672998,-68.40503594,-170.82639656
-77.58517927,-81.67206311,94.81383833,65.70509087,-96.69531848,-3.00831388
4.47855222,15.13519271,2.25300288,-0.92094022,-1.32743577

>  <Name>
1uts_lig

>  <RI>
0

>  <Rbt.Current_Directory>
/home/itssahil/PROJECTS/Mol_Feturizer/New_Systems/rnas/1uts

>  <Rbt.Executable>
rbdock ($Id: //depot/dev/client3/rdock/2013.1/src/exe/rbdock.cxx#4 $)

>  <Rbt.Library>
libRbt.so (2013.1, Build901 2013/11/27)

>  <Rbt.Parameter_File>
/export/apps/rDock/src/rDock_2013.1_src/data/scripts/dock_solv.prm

>  <Rbt.Receptor>
prm/pocket_docking_6.prm

>  <SCORE>
-29.6646

>  <SCORE.INTER>
-27.0418

>  <SCORE.INTER.CONST>
1

>  <SCORE.INTER.POLAR>
-2.04031

>  <SCORE.INTER.ROT>
10

>  <SCORE.INTER.SOLV>
8.95566

>  <SCORE.INTER.VDW>
-24.4787

>  <SCORE.INTER.norm>
-0.901393

>  <SCORE.INTRA>
-2.62285

>  <SCORE.INTRA.DIHEDRAL>
-3.54879

>  <SCORE.INTRA.DIHEDRAL.0>
18.0451

>  <SCORE.INTRA.POLAR>
0.196815

>  <SCORE.INTRA.POLAR.0>
-0.196815

>  <SCORE.INTRA.REPUL>
0

>  <SCORE.INTRA.REPUL.0>
0

>  <SCORE.INTRA.SOLV>
-0.173472

>  <SCORE.INTRA.SOLV.lig_0>
-14.7906

>  <SCORE.INTRA.VDW>
-1.43089

>  <SCORE.INTRA.VDW.0>
-0.411701

>  <SCORE.INTRA.norm>
-0.0874282

>  <SCORE.RESTR>
0

>  <SCORE.RESTR.CAVITY>
0

>  <SCORE.RESTR.norm>
0

>  <SCORE.SYSTEM>
0

>  <SCORE.SYSTEM.CONST>
0

>  <SCORE.SYSTEM.DIHEDRAL>
0

>  <SCORE.SYSTEM.SOLV>
0

>  <SCORE.SYSTEM.norm>
0

>  <SCORE.heavy>
30

>  <SCORE.norm>
-0.988821

>  <RMSD>
9.986

$$$$
1uts_lig
 OpenBabel11021811413D
libRbt.so/2013.1/901 2013/11/27
 30 33  0  0  0  0  0  0  0  0999 V2000
   -1.1118    7.6472   10.6697 N   0  0  0  0  0  0  0  0  0  0  0  0
   -2.7245    6.0492   11.6093 C   0  0  0  0  0  0  0  0  0  0  0  0
   -3.8818    2.6264   14.8819 C   0  0  0  0  0  0  0  0  0  0  0  0
   -1.7776    5.1919   12.4540 C   0  0  0  0  0  0  0  0  0  0  0  0
   -2.4023    4.8890   13.7102 O   0  0  0  0  0  0  0  0  0  0  0  0
   -2.0029    6.5114   10.3421 C   0  0  0  0  0  0  0  0  0  0  0  0
   -4.5266    3.9355   15.1322 N   0  0  0  0  0  0  0  0  0  0  0  0
   -5.9677    3.7336   15.4381 C   0  0  0  0  0  0  0  0  0  0  0  0
   -6.7282    3.3992   14.1516 C   0  0  0  0  0  0  0  0  0  0  0  0
   -7.9847    2.6943   14.4912 N   0  0  0  0  0  0  0  0  0  0  0  0
   -7.9176    1.2948   13.9804 C   0  0  0  0  0  0  0  0  0  0  0  0
   -9.1368    3.4160   13.8808 C   0  0  0  0  0  0  0  0  0  0  0  0
   -9.2226    0.5605   14.3280 C   0  0  0  0  0  0  0  0  0  0  0  0
  -10.4439    2.6795   14.2251 C   0  0  0  0  0  0  0  0  0  0  0  0
  -10.3752    1.2813   13.7167 N   0  0  0  0  0  0  0  0  0  0  0  0
    0.4779    2.9577   15.1955 C   0  0  0  0  0  0  0  0  0  0  0  0
    2.6483   -2.2159   18.4124 N   0  0  0  0  0  0  0  0  0  0  0  0
   -0.1971    1.8638   15.7880 C   0  0  0  0  0  0  0  0  0  0  0  0
   -1.6100    1.7628   15.6830 C   0  0  0  0  0  0  0  0  0  0  0  0
   -2.3484    2.7553   14.9820 C   0  0  0  0  0  0  0  0  0  0  0  0
   -1.6674    3.8661   14.3993 C   0  0  0  0  0  0  0  0  0  0  0  0
   -0.2526    3.9604   14.5049 C   0  0  0  0  0  0  0  0  0  0  0  0
    1.9432   -3.3070   17.8554 C   0  0  0  0  0  0  0  0  0  0  0  0
    0.9205   -2.8585   16.9891 C   0  0  0  0  0  0  0  0  0  0  0  0
    0.2320   -0.4874   16.3049 C   0  0  0  0  0  0  0  0  0  0  0  0
    0.5375    0.8898   16.4789 C   0  0  0  0  0  0  0  0  0  0  0  0
    1.5935    1.2772   17.3490 C   0  0  0  0  0  0  0  0  0  0  0  0
    2.3434    0.2885   18.0416 C   0  0  0  0  0  0  0  0  0  0  0  0
    2.0426   -1.0969   17.8538 C   0  0  0  0  0  0  0  0  0  0  0  0
    0.9979   -1.4820   16.9938 C   0  0  0  0  0  0  0  0  0  0  0  0
  1  6  1  0  0  0  0
  2  4  1  0  0  0  0
  3  7  1  0  0  0  0
  4  5  1  0  0  0  0
  6  2  1  0  0  0  0
  7  8  1  0  0  0  0
  8  9  1  0  0  0  0
  9 10  1  0  0  0  0
 10 11  1  0  0  0  0
 10 12  1  0  0  0  0
 11 13  1  0  0  0  0
 13 15  1  0  0  0  0
 14 12  1  0  0  0  0
 15 14  1  0  0  0  0
 16 18  2  0  0  0  0
 16 22  1  0  0  0  0
 17 23  1  0  0  0  0
 17 29  1  0  0  0  0
 18 19  1  0  0  0  0
 18 26  1  0  0  0  0
 19 20  2  0  0  0  0
 20  3  1  0  0  0  0
 20 21  1  0  0  0  0
 21  5  1  0  0  0  0
 21 22  2  0  0  0  0
 23 24  2  0  0  0  0
 24 30  1  0  0  0  0
 25 26  2  0  0  0  0
 25 30  1  0  0  0  0
 26 27  1  0  0  0  0
 27 28  2  0  0  0  0
 28 29  1  0  0  0  0
 29 30  2  0  0  0  0
M  END
>  <CHROM.1>
-113.33726504,173.39232314,-163.07624831,167.87353308,-78.58539832,-74.77599998
157.85287624,-113.88657637,-137.27892688,136.15636842,-133.17208912,-2.78955827
2.25079210,14.89983701,-2.62171653,0.09029224,2.55417637

>  <Name>
1uts_lig

>  <RI>
0

>  <Rbt.Current_Directory>
/home/itssahil/PROJECTS/Mol_Feturizer/New_Systems/rnas/1uts

>  <Rbt.Executable>
rbdock ($Id: //depot/dev/client3/rdock/2013.1/src/exe/rbdock.cxx#4 $)

>  <Rbt.Library>
libRbt.so (2013.1, Build901 2013/11/27)

>  <Rbt.Parameter_File>
/export/apps/rDock/src/rDock_2013.1_src/data/scripts/dock_solv.prm

>  <Rbt.Receptor>
prm/pocket_docking_5.prm

>  <SCORE>
-34.4838

>  <SCORE.INTER>
-35.9738

>  <SCORE.INTER.CONST>
1

>  <SCORE.INTER.POLAR>
-3.37438

>  <SCORE.INTER.ROT>
10

>  <SCORE.INTER.SOLV>
10.7479

>  <SCORE.INTER.VDW>
-26.5839

>  <SCORE.INTER.norm>
-1.19913

>  <SCORE.INTRA>
1.49006

>  <SCORE.INTRA.DIHEDRAL>
-0.673286

>  <SCORE.INTRA.DIHEDRAL.0>
18.0451

>  <SCORE.INTRA.POLAR>
-0.0840603

>  <SCORE.INTRA.POLAR.0>
-0.196815

>  <SCORE.INTRA.REPUL>
0

>  <SCORE.INTRA.REPUL.0>
0

>  <SCORE.INTRA.SOLV>
-0.24421

>  <SCORE.INTRA.SOLV.lig_0>
-14.7906

>  <SCORE.INTRA.VDW>
2.23461

>  <SCORE.INTRA.VDW.0>
-0.411701

>  <SCORE.INTRA.norm>
0.0496685

>  <SCORE.RESTR>
0

>  <SCORE.RESTR.CAVITY>
0

>  <SCORE.RESTR.norm>
0

>  <SCORE.SYSTEM>
0

>  <SCORE.SYSTEM.CONST>
0

>  <SCORE.SYSTEM.DIHEDRAL>
0

>  <SCORE.SYSTEM.SOLV>
0

>  <SCORE.SYSTEM.norm>
0

>  <SCORE.heavy>
30

>  <SCORE.norm>
-1.14946

>  <RMSD>
9.996

$$$$
1uts_lig
 OpenBabel11021811413D
libRbt.so/2013.1/901 2013/11/27
 30 33  0  0  0  0  0  0  0  0999 V2000
   -3.6513    4.1931   10.7312 N   0  0  0  0  0  0  0  0  0  0  0  0
   -2.3911    4.5370   12.8124 C   0  0  0  0  0  0  0  0  0  0  0  0
   -3.3131    3.8359   16.4076 C   0  0  0  0  0  0  0  0  0  0  0  0
   -1.7053    3.1684   12.8549 C   0  0  0  0  0  0  0  0  0  0  0  0
   -1.8518    2.6030   14.1659 O   0  0  0  0  0  0  0  0  0  0  0  0
   -2.5635    4.9778   11.3577 C   0  0  0  0  0  0  0  0  0  0  0  0
   -3.7837    2.5836   15.7734 N   0  0  0  0  0  0  0  0  0  0  0  0
   -5.2634    2.6191   15.6320 C   0  0  0  0  0  0  0  0  0  0  0  0
   -5.6737    3.8258   14.7829 C   0  0  0  0  0  0  0  0  0  0  0  0
   -7.1443    3.8328   14.6149 N   0  0  0  0  0  0  0  0  0  0  0  0
   -7.7930    3.6845   15.9494 C   0  0  0  0  0  0  0  0  0  0  0  0
   -7.5441    2.7143   13.7150 C   0  0  0  0  0  0  0  0  0  0  0  0
   -9.3207    3.6874   15.7785 C   0  0  0  0  0  0  0  0  0  0  0  0
   -9.0742    2.7140   13.5460 C   0  0  0  0  0  0  0  0  0  0  0  0
   -9.7214    2.5682   14.8795 N   0  0  0  0  0  0  0  0  0  0  0  0
    1.0184    4.3051   15.9256 C   0  0  0  0  0  0  0  0  0  0  0  0
    3.4965    7.9045   20.5954 N   0  0  0  0  0  0  0  0  0  0  0  0
    0.3511    4.9287   17.0068 C   0  0  0  0  0  0  0  0  0  0  0  0
   -1.0527    4.7730   17.1569 C   0  0  0  0  0  0  0  0  0  0  0  0
   -1.7895    3.9901   16.2262 C   0  0  0  0  0  0  0  0  0  0  0  0
   -1.1171    3.3755   15.1275 C   0  0  0  0  0  0  0  0  0  0  0  0
    0.2888    3.5323   14.9841 C   0  0  0  0  0  0  0  0  0  0  0  0
    4.6685    7.1213   20.4918 C   0  0  0  0  0  0  0  0  0  0  0  0
    4.4724    6.0325   19.6122 C   0  0  0  0  0  0  0  0  0  0  0  0
    2.4226    5.3438   18.2381 C   0  0  0  0  0  0  0  0  0  0  0  0
    1.0840    5.7003   17.9195 C   0  0  0  0  0  0  0  0  0  0  0  0
    0.4925    6.8444   18.5224 C   0  0  0  0  0  0  0  0  0  0  0  0
    1.2396    7.6310   19.4404 C   0  0  0  0  0  0  0  0  0  0  0  0
    2.5906    7.2776   19.7484 C   0  0  0  0  0  0  0  0  0  0  0  0
    3.1773    6.1458   19.1533 C   0  0  0  0  0  0  0  0  0  0  0  0
  1  6  1  0  0  0  0
  2  4  1  0  0  0  0
  3  7  1  0  0  0  0
  4  5  1  0  0  0  0
  6  2  1  0  0  0  0
  7  8  1  0  0  0  0
  8  9  1  0  0  0  0
  9 10  1  0  0  0  0
 10 11  1  0  0  0  0
 10 12  1  0  0  0  0
 11 13  1  0  0  0  0
 13 15  1  0  0  0  0
 14 12  1  0  0  0  0
 15 14  1  0  0  0  0
 16 18  2  0  0  0  0
 16 22  1  0  0  0  0
 17 23  1  0  0  0  0
 17 29  1  0  0  0  0
 18 19  1  0  0  0  0
 18 26  1  0  0  0  0
 19 20  2  0  0  0  0
 20  3  1  0  0  0  0
 20 21  1  0  0  0  0
 21  5  1  0  0  0  0
 21 22  2  0  0  0  0
 23 24  2  0  0  0  0
 24 30  1  0  0  0  0
 25 26  2  0  0  0  0
 25 30  1  0  0  0  0
 26 27  1  0  0  0  0
 27 28  2  0  0  0  0
 28 29  1  0  0  0  0
 29 30  2  0  0  0  0
M  END
>  <CHROM.1>
-54.31505191,-165.24074759,-164.95576208,-66.80078085,74.06322683,58.89458123
178.41933393,50.35660552,-33.23178637,-154.92681984,120.11067782,-2.19307665
4.47936719,15.97533646,-2.62482303,0.17199878,1.27977841

>  <Name>
1uts_lig

>  <RI>
0

>  <Rbt.Current_Directory>
/home/itssahil/PROJECTS/Mol_Feturizer/New_Systems/rnas/1uts

>  <Rbt.Executable>
rbdock ($Id: //depot/dev/client3/rdock/2013.1/src/exe/rbdock.cxx#4 $)

>  <Rbt.Library>
libRbt.so (2013.1, Build901 2013/11/27)

>  <Rbt.Parameter_File>
/export/apps/rDock/src/rDock_2013.1_src/data/scripts/dock_solv.prm

>  <Rbt.Receptor>
prm/pocket_docking_6.prm

>  <SCORE>
-35.6308

>  <SCORE.INTER>
-35.4598

>  <SCORE.INTER.CONST>
1

>  <SCORE.INTER.POLAR>
-1.80986

>  <SCORE.INTER.ROT>
10

>  <SCORE.INTER.SOLV>
9.4934

>  <SCORE.INTER.VDW>
-31.0381

>  <SCORE.INTER.norm>
-1.18199

>  <SCORE.INTRA>
-0.171054

>  <SCORE.INTRA.DIHEDRAL>
-9.68825

>  <SCORE.INTRA.DIHEDRAL.0>
18.0451

>  <SCORE.INTRA.POLAR>
-0.564362

>  <SCORE.INTRA.POLAR.0>
-0.196815

>  <SCORE.INTRA.REPUL>
0

>  <SCORE.INTRA.REPUL.0>
0

>  <SCORE.INTRA.SOLV>
-0.011311

>  <SCORE.INTRA.SOLV.lig_0>
-14.7906

>  <SCORE.INTRA.VDW>
6.59755

>  <SCORE.INTRA.VDW.0>
-0.411701

>  <SCORE.INTRA.norm>
-0.00570179

>  <SCORE.RESTR>
0

>  <SCORE.RESTR.CAVITY>
0

>  <SCORE.RESTR.norm>
0

>  <SCORE.SYSTEM>
0

>  <SCORE.SYSTEM.CONST>
0

>  <SCORE.SYSTEM.DIHEDRAL>
0

>  <SCORE.SYSTEM.SOLV>
0

>  <SCORE.SYSTEM.norm>
0

>  <SCORE.heavy>
30

>  <SCORE.norm>
-1.18769

>  <RMSD>
10.003

$$$$
1uts_lig
 OpenBabel11021811413D
libRbt.so/2013.1/901 2013/11/27
 30 33  0  0  0  0  0  0  0  0999 V2000
   -7.3291    3.6395   13.8060 N   0  0  0  0  0  0  0  0  0  0  0  0
   -5.9575    3.0871   15.7684 C   0  0  0  0  0  0  0  0  0  0  0  0
   -2.2107    3.6445   14.0598 C   0  0  0  0  0  0  0  0  0  0  0  0
   -4.5373    3.2124   16.3276 C   0  0  0  0  0  0  0  0  0  0  0  0
   -4.0734    4.5591   16.1515 O   0  0  0  0  0  0  0  0  0  0  0  0
   -5.9453    3.3896   14.2688 C   0  0  0  0  0  0  0  0  0  0  0  0
   -1.1408    3.7613   13.0431 N   0  0  0  0  0  0  0  0  0  0  0  0
   -1.7383    4.0970   11.7236 C   0  0  0  0  0  0  0  0  0  0  0  0
   -1.9694    5.6081   11.6291 C   0  0  0  0  0  0  0  0  0  0  0  0
   -2.1175    5.9959   10.2084 N   0  0  0  0  0  0  0  0  0  0  0  0
   -1.7072    7.4198   10.0413 C   0  0  0  0  0  0  0  0  0  0  0  0
   -3.5362    5.8111    9.7911 C   0  0  0  0  0  0  0  0  0  0  0  0
   -1.8634    7.8274    8.5673 C   0  0  0  0  0  0  0  0  0  0  0  0
   -3.6947    6.2225    8.3162 C   0  0  0  0  0  0  0  0  0  0  0  0
   -3.2823    7.6440    8.1498 N   0  0  0  0  0  0  0  0  0  0  0  0
   -0.7954    5.2176   17.8987 C   0  0  0  0  0  0  0  0  0  0  0  0
    5.6849    5.0023   17.7872 N   0  0  0  0  0  0  0  0  0  0  0  0
    0.1321    4.7716   16.9270 C   0  0  0  0  0  0  0  0  0  0  0  0
   -0.3333    4.2625   15.6853 C   0  0  0  0  0  0  0  0  0  0  0  0
   -1.7278    4.2024   15.4139 C   0  0  0  0  0  0  0  0  0  0  0  0
   -2.6619    4.6374   16.4016 C   0  0  0  0  0  0  0  0  0  0  0  0
   -2.1901    5.1489   17.6415 C   0  0  0  0  0  0  0  0  0  0  0  0
    6.0797    4.6407   16.4791 C   0  0  0  0  0  0  0  0  0  0  0  0
    4.9536    4.3916   15.6622 C   0  0  0  0  0  0  0  0  0  0  0  0
    2.4489    4.5289   16.1835 C   0  0  0  0  0  0  0  0  0  0  0  0
    1.5054    4.8327   17.2023 C   0  0  0  0  0  0  0  0  0  0  0  0
    1.9568    5.2051   18.4984 C   0  0  0  0  0  0  0  0  0  0  0  0
    3.3493    5.2756   18.7735 C   0  0  0  0  0  0  0  0  0  0  0  0
    4.2961    4.9829   17.7426 C   0  0  0  0  0  0  0  0  0  0  0  0
    3.8513    4.6137   16.4599 C   0  0  0  0  0  0  0  0  0  0  0  0
  1  6  1  0  0  0  0
  2  4  1  0  0  0  0
  3  7  1  0  0  0  0
  4  5  1  0  0  0  0
  6  2  1  0  0  0  0
  7  8  1  0  0  0  0
  8  9  1  0  0  0  0
  9 10  1  0  0  0  0
 10 11  1  0  0  0  0
 10 12  1  0  0  0  0
 11 13  1  0  0  0  0
 13 15  1  0  0  0  0
 14 12  1  0  0  0  0
 15 14  1  0  0  0  0
 16 18  2  0  0  0  0
 16 22  1  0  0  0  0
 17 23  1  0  0  0  0
 17 29  1  0  0  0  0
 18 19  1  0  0  0  0
 18 26  1  0  0  0  0
 19 20  2  0  0  0  0
 20  3  1  0  0  0  0
 20 21  1  0  0  0  0
 21  5  1  0  0  0  0
 21 22  2  0  0  0  0
 23 24  2  0  0  0  0
 24 30  1  0  0  0  0
 25 26  2  0  0  0  0
 25 30  1  0  0  0  0
 26 27  1  0  0  0  0
 27 28  2  0  0  0  0
 28 29  1  0  0  0  0
 29 30  2  0  0  0  0
M  END
>  <CHROM.1>
-173.29247817,61.85746530,-143.12892633,-167.78479582,-164.38287330,83.34300465
160.91235561,-153.64306984,-173.00695497,-23.11651370,78.18462321,-0.98533381
4.93063031,14.40118335,2.44893982,-0.17308816,-1.25077343

>  <Name>
1uts_lig

>  <RI>
0

>  <Rbt.Current_Directory>
/home/itssahil/PROJECTS/Mol_Feturizer/New_Systems/rnas/1uts

>  <Rbt.Executable>
rbdock ($Id: //depot/dev/client3/rdock/2013.1/src/exe/rbdock.cxx#4 $)

>  <Rbt.Library>
libRbt.so (2013.1, Build901 2013/11/27)

>  <Rbt.Parameter_File>
/export/apps/rDock/src/rDock_2013.1_src/data/scripts/dock_solv.prm

>  <Rbt.Receptor>
prm/pocket_docking_6.prm

>  <SCORE>
-40.861

>  <SCORE.INTER>
-41.4209

>  <SCORE.INTER.CONST>
1

>  <SCORE.INTER.POLAR>
-2.79785

>  <SCORE.INTER.ROT>
10

>  <SCORE.INTER.SOLV>
9.20277

>  <SCORE.INTER.VDW>
-31.622

>  <SCORE.INTER.norm>
-1.3807

>  <SCORE.INTRA>
0.559927

>  <SCORE.INTRA.DIHEDRAL>
-4.63635

>  <SCORE.INTRA.DIHEDRAL.0>
18.0451

>  <SCORE.INTRA.POLAR>
0.196815

>  <SCORE.INTRA.POLAR.0>
-0.196815

>  <SCORE.INTRA.REPUL>
0

>  <SCORE.INTRA.REPUL.0>
0

>  <SCORE.INTRA.SOLV>
-0.566925

>  <SCORE.INTRA.SOLV.lig_0>
-14.7906

>  <SCORE.INTRA.VDW>
2.49239

>  <SCORE.INTRA.VDW.0>
-0.411701

>  <SCORE.INTRA.norm>
0.0186642

>  <SCORE.RESTR>
0

>  <SCORE.RESTR.CAVITY>
0

>  <SCORE.RESTR.norm>
0

>  <SCORE.SYSTEM>
0

>  <SCORE.SYSTEM.CONST>
0

>  <SCORE.SYSTEM.DIHEDRAL>
0

>  <SCORE.SYSTEM.SOLV>
0

>  <SCORE.SYSTEM.norm>
0

>  <SCORE.heavy>
30

>  <SCORE.norm>
-1.36203

>  <RMSD>
10.010

$$$$
1uts_lig
 OpenBabel11021811413D
libRbt.so/2013.1/901 2013/11/27
 30 33  0  0  0  0  0  0  0  0999 V2000
   -7.1072    4.3317   16.2011 N   0  0  0  0  0  0  0  0  0  0  0  0
   -5.5471    3.4924   14.4984 C   0  0  0  0  0  0  0  0  0  0  0  0
   -1.6294    3.5977   13.4905 C   0  0  0  0  0  0  0  0  0  0  0  0
   -4.2430    4.0171   15.1061 C   0  0  0  0  0  0  0  0  0  0  0  0
   -3.5021    2.9209   15.6622 O   0  0  0  0  0  0  0  0  0  0  0  0
   -6.5147    3.1064   15.6188 C   0  0  0  0  0  0  0  0  0  0  0  0
   -1.6733    4.9542   12.8987 N   0  0  0  0  0  0  0  0  0  0  0  0
   -1.6773    4.8535   11.4152 C   0  0  0  0  0  0  0  0  0  0  0  0
   -1.9834    6.2239   10.8039 C   0  0  0  0  0  0  0  0  0  0  0  0
   -1.1026    6.4503    9.6361 N   0  0  0  0  0  0  0  0  0  0  0  0
   -1.5846    7.6414    8.8793 C   0  0  0  0  0  0  0  0  0  0  0  0
   -1.1157    5.2408    8.7655 C   0  0  0  0  0  0  0  0  0  0  0  0
   -0.6743    7.8774    7.6632 C   0  0  0  0  0  0  0  0  0  0  0  0
   -0.2074    5.4773    7.5454 C   0  0  0  0  0  0  0  0  0  0  0  0
   -0.6880    6.6685    6.7915 N   0  0  0  0  0  0  0  0  0  0  0  0
   -0.4648    3.8217   17.7105 C   0  0  0  0  0  0  0  0  0  0  0  0
    5.6138    5.6987   18.3513 N   0  0  0  0  0  0  0  0  0  0  0  0
    0.4705    4.1381   16.6964 C   0  0  0  0  0  0  0  0  0  0  0  0
    0.0867    4.0630   15.3309 C   0  0  0  0  0  0  0  0  0  0  0  0
   -1.2350    3.6740   14.9793 C   0  0  0  0  0  0  0  0  0  0  0  0
   -2.1718    3.3396   16.0030 C   0  0  0  0  0  0  0  0  0  0  0  0
   -1.7828    3.4196   17.3682 C   0  0  0  0  0  0  0  0  0  0  0  0
    5.2470    6.1859   19.6264 C   0  0  0  0  0  0  0  0  0  0  0  0
    3.8532    6.0695   19.8299 C   0  0  0  0  0  0  0  0  0  0  0  0
    2.0170    5.1249   18.3132 C   0  0  0  0  0  0  0  0  0  0  0  0
    1.7723    4.5194   17.0507 C   0  0  0  0  0  0  0  0  0  0  0  0
    2.8506    4.2951   16.1512 C   0  0  0  0  0  0  0  0  0  0  0  0
    4.1711    4.6737   16.5153 C   0  0  0  0  0  0  0  0  0  0  0  0
    4.4162    5.2699   17.7919 C   0  0  0  0  0  0  0  0  0  0  0  0
    3.3505    5.4932   18.6828 C   0  0  0  0  0  0  0  0  0  0  0  0
  1  6  1  0  0  0  0
  2  4  1  0  0  0  0
  3  7  1  0  0  0  0
  4  5  1  0  0  0  0
  6  2  1  0  0  0  0
  7  8  1  0  0  0  0
  8  9  1  0  0  0  0
  9 10  1  0  0  0  0
 10 11  1  0  0  0  0
 10 12  1  0  0  0  0
 11 13  1  0  0  0  0
 13 15  1  0  0  0  0
 14 12  1  0  0  0  0
 15 14  1  0  0  0  0
 16 18  2  0  0  0  0
 16 22  1  0  0  0  0
 17 23  1  0  0  0  0
 17 29  1  0  0  0  0
 18 19  1  0  0  0  0
 18 26  1  0  0  0  0
 19 20  2  0  0  0  0
 20  3  1  0  0  0  0
 20 21  1  0  0  0  0
 21  5  1  0  0  0  0
 21 22  2  0  0  0  0
 23 24  2  0  0  0  0
 24 30  1  0  0  0  0
 25 26  2  0  0  0  0
 25 30  1  0  0  0  0
 26 27  1  0  0  0  0
 27 28  2  0  0  0  0
 28 29  1  0  0  0  0
 29 30  2  0  0  0  0
M  END
>  <CHROM.1>
179.19149511,72.93748573,164.37118804,168.85222334,76.33703949,169.54425538
138.30802100,168.42960545,-26.48890783,-68.84792376,-68.68143946,-0.51490787
4.91176109,14.35238626,2.14610326,-0.25238887,-1.32271894

>  <Name>
1uts_lig

>  <RI>
0

>  <Rbt.Current_Directory>
/home/itssahil/PROJECTS/Mol_Feturizer/New_Systems/rnas/1uts

>  <Rbt.Executable>
rbdock ($Id: //depot/dev/client3/rdock/2013.1/src/exe/rbdock.cxx#4 $)

>  <Rbt.Library>
libRbt.so (2013.1, Build901 2013/11/27)

>  <Rbt.Parameter_File>
/export/apps/rDock/src/rDock_2013.1_src/data/scripts/dock_solv.prm

>  <Rbt.Receptor>
prm/pocket_docking_8.prm

>  <SCORE>
-44.3012

>  <SCORE.INTER>
-46.3421

>  <SCORE.INTER.CONST>
1

>  <SCORE.INTER.POLAR>
-3.85135

>  <SCORE.INTER.ROT>
10

>  <SCORE.INTER.SOLV>
10.5191

>  <SCORE.INTER.VDW>
-31.8299

>  <SCORE.INTER.norm>
-1.54474

>  <SCORE.INTRA>
2.04089

>  <SCORE.INTRA.DIHEDRAL>
-4.52336

>  <SCORE.INTRA.DIHEDRAL.0>
18.0451

>  <SCORE.INTRA.POLAR>
0.196815

>  <SCORE.INTRA.POLAR.0>
-0.196815

>  <SCORE.INTRA.REPUL>
0

>  <SCORE.INTRA.REPUL.0>
0

>  <SCORE.INTRA.SOLV>
-0.325083

>  <SCORE.INTRA.SOLV.lig_0>
-14.7906

>  <SCORE.INTRA.VDW>
3.79594

>  <SCORE.INTRA.VDW.0>
-0.411701

>  <SCORE.INTRA.norm>
0.0680296

>  <SCORE.RESTR>
0

>  <SCORE.RESTR.CAVITY>
0

>  <SCORE.RESTR.norm>
0

>  <SCORE.SYSTEM>
0

>  <SCORE.SYSTEM.CONST>
0

>  <SCORE.SYSTEM.DIHEDRAL>
0

>  <SCORE.SYSTEM.SOLV>
0

>  <SCORE.SYSTEM.norm>
0

>  <SCORE.heavy>
30

>  <SCORE.norm>
-1.47671

>  <RMSD>
10.013

$$$$
1uts_lig
 OpenBabel11021811413D
libRbt.so/2013.1/901 2013/11/27
 30 33  0  0  0  0  0  0  0  0999 V2000
   -8.0078    3.3006   14.4985 N   0  0  0  0  0  0  0  0  0  0  0  0
   -5.6348    3.7924   14.9041 C   0  0  0  0  0  0  0  0  0  0  0  0
   -1.5842    2.7549   14.9452 C   0  0  0  0  0  0  0  0  0  0  0  0
   -4.5195    3.6349   15.9417 C   0  0  0  0  0  0  0  0  0  0  0  0
   -3.5946    4.7251   15.8156 O   0  0  0  0  0  0  0  0  0  0  0  0
   -6.8200    2.9047   15.2883 C   0  0  0  0  0  0  0  0  0  0  0  0
   -0.8463    3.4288   13.8528 N   0  0  0  0  0  0  0  0  0  0  0  0
   -1.7686    4.3206   13.1011 C   0  0  0  0  0  0  0  0  0  0  0  0
   -2.2341    3.6226   11.8199 C   0  0  0  0  0  0  0  0  0  0  0  0
   -3.1832    4.4996   11.0981 N   0  0  0  0  0  0  0  0  0  0  0  0
   -4.5234    3.8468   11.0574 C   0  0  0  0  0  0  0  0  0  0  0  0
   -2.6800    4.7409    9.7162 C   0  0  0  0  0  0  0  0  0  0  0  0
   -5.5110    4.7532   10.3050 C   0  0  0  0  0  0  0  0  0  0  0  0
   -3.6701    5.6454    8.9606 C   0  0  0  0  0  0  0  0  0  0  0  0
   -5.0089    4.9939    8.9225 N   0  0  0  0  0  0  0  0  0  0  0  0
   -1.1630    4.9993   18.6869 C   0  0  0  0  0  0  0  0  0  0  0  0
    4.2813    3.4036   21.6716 N   0  0  0  0  0  0  0  0  0  0  0  0
   -0.1835    4.0483   18.3134 C   0  0  0  0  0  0  0  0  0  0  0  0
   -0.3263    3.3242   17.0999 C   0  0  0  0  0  0  0  0  0  0  0  0
   -1.4486    3.5536   16.2573 C   0  0  0  0  0  0  0  0  0  0  0  0
   -2.4434    4.5012   16.6438 C   0  0  0  0  0  0  0  0  0  0  0  0
   -2.2936    5.2254   17.8582 C   0  0  0  0  0  0  0  0  0  0  0  0
    4.7902    4.7157   21.5399 C   0  0  0  0  0  0  0  0  0  0  0  0
    3.9886    5.4829   20.6644 C   0  0  0  0  0  0  0  0  0  0  0  0
    1.8530    4.8717   19.3877 C   0  0  0  0  0  0  0  0  0  0  0  0
    0.9195    3.8265   19.1499 C   0  0  0  0  0  0  0  0  0  0  0  0
    1.1025    2.5586   19.7672 C   0  0  0  0  0  0  0  0  0  0  0  0
    2.2159    2.3378   20.6223 C   0  0  0  0  0  0  0  0  0  0  0  0
    3.1458    3.3956   20.8706 C   0  0  0  0  0  0  0  0  0  0  0  0
    2.9667    4.6505   20.2602 C   0  0  0  0  0  0  0  0  0  0  0  0
  1  6  1  0  0  0  0
  2  4  1  0  0  0  0
  3  7  1  0  0  0  0
  4  5  1  0  0  0  0
  6  2  1  0  0  0  0
  7  8  1  0  0  0  0
  8  9  1  0  0  0  0
  9 10  1  0  0  0  0
 10 11  1  0  0  0  0
 10 12  1  0  0  0  0
 11 13  1  0  0  0  0
 13 15  1  0  0  0  0
 14 12  1  0  0  0  0
 15 14  1  0  0  0  0
 16 18  2  0  0  0  0
 16 22  1  0  0  0  0
 17 23  1  0  0  0  0
 17 29  1  0  0  0  0
 18 19  1  0  0  0  0
 18 26  1  0  0  0  0
 19 20  2  0  0  0  0
 20  3  1  0  0  0  0
 20 21  1  0  0  0  0
 21  5  1  0  0  0  0
 21 22  2  0  0  0  0
 23 24  2  0  0  0  0
 24 30  1  0  0  0  0
 25 26  2  0  0  0  0
 25 30  1  0  0  0  0
 26 27  1  0  0  0  0
 27 28  2  0  0  0  0
 28 29  1  0  0  0  0
 29 30  2  0  0  0  0
M  END
>  <CHROM.1>
64.99557158,-163.21181047,-93.68811865,-171.80211073,165.93246357,-99.38067412
178.30359860,-115.67249853,-63.98237522,-86.25841574,75.14637197,-1.57827572
4.05996596,15.76649850,2.26395958,-0.12448363,-1.43024061

>  <Name>
1uts_lig

>  <RI>
0

>  <Rbt.Current_Directory>
/home/itssahil/PROJECTS/Mol_Feturizer/New_Systems/rnas/1uts

>  <Rbt.Executable>
rbdock ($Id: //depot/dev/client3/rdock/2013.1/src/exe/rbdock.cxx#4 $)

>  <Rbt.Library>
libRbt.so (2013.1, Build901 2013/11/27)

>  <Rbt.Parameter_File>
/export/apps/rDock/src/rDock_2013.1_src/data/scripts/dock_solv.prm

>  <Rbt.Receptor>
prm/pocket_docking_4.prm

>  <SCORE>
-21.7119

>  <SCORE.INTER>
-21.9675

>  <SCORE.INTER.CONST>
1

>  <SCORE.INTER.POLAR>
-1.50913

>  <SCORE.INTER.ROT>
10

>  <SCORE.INTER.SOLV>
9.01152

>  <SCORE.INTER.VDW>
-22.8851

>  <SCORE.INTER.norm>
-0.732251

>  <SCORE.INTRA>
0.255586

>  <SCORE.INTRA.DIHEDRAL>
1.49936

>  <SCORE.INTRA.DIHEDRAL.0>
18.0451

>  <SCORE.INTRA.POLAR>
0.196815

>  <SCORE.INTRA.POLAR.0>
-0.196815

>  <SCORE.INTRA.REPUL>
0

>  <SCORE.INTRA.REPUL.0>
0

>  <SCORE.INTRA.SOLV>
-0.54072

>  <SCORE.INTRA.SOLV.lig_0>
-14.7906

>  <SCORE.INTRA.VDW>
-0.892906

>  <SCORE.INTRA.VDW.0>
-0.411701

>  <SCORE.INTRA.norm>
0.00851955

>  <SCORE.RESTR>
0

>  <SCORE.RESTR.CAVITY>
0

>  <SCORE.RESTR.norm>
0

>  <SCORE.SYSTEM>
0

>  <SCORE.SYSTEM.CONST>
0

>  <SCORE.SYSTEM.DIHEDRAL>
0

>  <SCORE.SYSTEM.SOLV>
0

>  <SCORE.SYSTEM.norm>
0

>  <SCORE.heavy>
30

>  <SCORE.norm>
-0.723732

>  <RMSD>
10.014

$$$$
1uts_lig
 OpenBabel11021811413D
libRbt.so/2013.1/901 2013/11/27
 30 33  0  0  0  0  0  0  0  0999 V2000
   -4.1556    4.6021   10.4996 N   0  0  0  0  0  0  0  0  0  0  0  0
   -2.6549    4.7871   12.4364 C   0  0  0  0  0  0  0  0  0  0  0  0
   -2.4303    2.5433   16.1427 C   0  0  0  0  0  0  0  0  0  0  0  0
   -1.4464    4.1383   13.1172 C   0  0  0  0  0  0  0  0  0  0  0  0
   -1.3043    4.6701   14.4427 O   0  0  0  0  0  0  0  0  0  0  0  0
   -2.8465    4.1786   11.0460 C   0  0  0  0  0  0  0  0  0  0  0  0
   -3.1917    3.8037   15.9883 N   0  0  0  0  0  0  0  0  0  0  0  0
   -4.2863    3.6097   15.0007 C   0  0  0  0  0  0  0  0  0  0  0  0
   -5.5342    3.0746   15.7093 C   0  0  0  0  0  0  0  0  0  0  0  0
   -6.4871    2.5546   14.7031 N   0  0  0  0  0  0  0  0  0  0  0  0
   -6.9576    3.6787   13.8435 C   0  0  0  0  0  0  0  0  0  0  0  0
   -7.6392    1.9141   15.3983 C   0  0  0  0  0  0  0  0  0  0  0  0
   -7.9507    3.1430   12.7995 C   0  0  0  0  0  0  0  0  0  0  0  0
   -8.6362    1.3806   14.3539 C   0  0  0  0  0  0  0  0  0  0  0  0
   -9.1038    2.5034   13.4942 N   0  0  0  0  0  0  0  0  0  0  0  0
    1.8830    3.2908   15.9160 C   0  0  0  0  0  0  0  0  0  0  0  0
    5.0718   -0.8668   19.6157 N   0  0  0  0  0  0  0  0  0  0  0  0
    1.3810    2.2707   16.7590 C   0  0  0  0  0  0  0  0  0  0  0  0
   -0.0179    2.0341   16.8281 C   0  0  0  0  0  0  0  0  0  0  0  0
   -0.9154    2.8165   16.0508 C   0  0  0  0  0  0  0  0  0  0  0  0
   -0.4082    3.8555   15.2138 C   0  0  0  0  0  0  0  0  0  0  0  0
    0.9932    4.0858   15.1463 C   0  0  0  0  0  0  0  0  0  0  0  0
    5.6395   -1.5265   18.5020 C   0  0  0  0  0  0  0  0  0  0  0  0
    5.0193   -1.1146   17.3007 C   0  0  0  0  0  0  0  0  0  0  0  0
    3.1460    0.5830   16.8850 C   0  0  0  0  0  0  0  0  0  0  0  0
    2.2719    1.5043   17.5235 C   0  0  0  0  0  0  0  0  0  0  0  0
    2.3077    1.6521   18.9374 C   0  0  0  0  0  0  0  0  0  0  0  0
    3.2177    0.8814   19.7103 C   0  0  0  0  0  0  0  0  0  0  0  0
    4.1054   -0.0346   19.0637 C   0  0  0  0  0  0  0  0  0  0  0  0
    4.0710   -0.1826   17.6650 C   0  0  0  0  0  0  0  0  0  0  0  0
  1  6  1  0  0  0  0
  2  4  1  0  0  0  0
  3  7  1  0  0  0  0
  4  5  1  0  0  0  0
  6  2  1  0  0  0  0
  7  8  1  0  0  0  0
  8  9  1  0  0  0  0
  9 10  1  0  0  0  0
 10 11  1  0  0  0  0
 10 12  1  0  0  0  0
 11 13  1  0  0  0  0
 13 15  1  0  0  0  0
 14 12  1  0  0  0  0
 15 14  1  0  0  0  0
 16 18  2  0  0  0  0
 16 22  1  0  0  0  0
 17 23  1  0  0  0  0
 17 29  1  0  0  0  0
 18 19  1  0  0  0  0
 18 26  1  0  0  0  0
 19 20  2  0  0  0  0
 20  3  1  0  0  0  0
 20 21  1  0  0  0  0
 21  5  1  0  0  0  0
 21 22  2  0  0  0  0
 23 24  2  0  0  0  0
 24 30  1  0  0  0  0
 25 26  2  0  0  0  0
 25 30  1  0  0  0  0
 26 27  1  0  0  0  0
 27 28  2  0  0  0  0
 28 29  1  0  0  0  0
 29 30  2  0  0  0  0
M  END
>  <CHROM.1>
61.77505654,-177.54328039,131.89810692,165.52299312,168.82815262,87.37706603
-165.37407767,-64.52338677,-69.38148758,146.24931358,-94.30249490,-1.46424186
2.39819415,15.55095794,-2.65660808,0.06328904,2.24864763

>  <Name>
1uts_lig

>  <RI>
0

>  <Rbt.Current_Directory>
/home/itssahil/PROJECTS/Mol_Feturizer/New_Systems/rnas/1uts

>  <Rbt.Executable>
rbdock ($Id: //depot/dev/client3/rdock/2013.1/src/exe/rbdock.cxx#4 $)

>  <Rbt.Library>
libRbt.so (2013.1, Build901 2013/11/27)

>  <Rbt.Parameter_File>
/export/apps/rDock/src/rDock_2013.1_src/data/scripts/dock_solv.prm

>  <Rbt.Receptor>
prm/pocket_docking_3.prm

>  <SCORE>
-24.2201

>  <SCORE.INTER>
-22.7717

>  <SCORE.INTER.CONST>
1

>  <SCORE.INTER.POLAR>
-0.87178

>  <SCORE.INTER.ROT>
10

>  <SCORE.INTER.SOLV>
8.56969

>  <SCORE.INTER.VDW>
-25.3984

>  <SCORE.INTER.norm>
-0.759057

>  <SCORE.INTRA>
-1.85588

>  <SCORE.INTRA.DIHEDRAL>
-1.22343

>  <SCORE.INTRA.DIHEDRAL.0>
18.0451

>  <SCORE.INTRA.POLAR>
-0.507421

>  <SCORE.INTRA.POLAR.0>
-0.196815

>  <SCORE.INTRA.REPUL>
0

>  <SCORE.INTRA.REPUL.0>
0

>  <SCORE.INTRA.SOLV>
-0.157558

>  <SCORE.INTRA.SOLV.lig_0>
-14.7906

>  <SCORE.INTRA.VDW>
0.559851

>  <SCORE.INTRA.VDW.0>
-0.411701

>  <SCORE.INTRA.norm>
-0.0618626

>  <SCORE.RESTR>
0.407531

>  <SCORE.RESTR.CAVITY>
0.407531

>  <SCORE.RESTR.norm>
0.0135844

>  <SCORE.SYSTEM>
0

>  <SCORE.SYSTEM.CONST>
0

>  <SCORE.SYSTEM.DIHEDRAL>
0

>  <SCORE.SYSTEM.SOLV>
0

>  <SCORE.SYSTEM.norm>
0

>  <SCORE.heavy>
30

>  <SCORE.norm>
-0.807335

>  <RMSD>
10.015

$$$$
1uts_lig
 OpenBabel11021811413D
libRbt.so/2013.1/901 2013/11/27
 30 33  0  0  0  0  0  0  0  0999 V2000
   -9.1848    3.2045   14.5825 N   0  0  0  0  0  0  0  0  0  0  0  0
   -7.1796    3.4279   13.1802 C   0  0  0  0  0  0  0  0  0  0  0  0
   -2.6594    4.2201   12.1890 C   0  0  0  0  0  0  0  0  0  0  0  0
   -6.0839    3.0977   14.1979 C   0  0  0  0  0  0  0  0  0  0  0  0
   -4.9699    3.9811   14.0016 O   0  0  0  0  0  0  0  0  0  0  0  0
   -8.4221    2.5856   13.4750 C   0  0  0  0  0  0  0  0  0  0  0  0
   -2.0886    5.5717   12.3878 N   0  0  0  0  0  0  0  0  0  0  0  0
   -2.2810    6.3827   11.1564 C   0  0  0  0  0  0  0  0  0  0  0  0
   -1.1782    6.0577   10.1447 C   0  0  0  0  0  0  0  0  0  0  0  0
   -1.5999    4.9124    9.3072 N   0  0  0  0  0  0  0  0  0  0  0  0
   -0.4720    4.5107    8.4183 C   0  0  0  0  0  0  0  0  0  0  0  0
   -2.7872    5.3041    8.4961 C   0  0  0  0  0  0  0  0  0  0  0  0
   -0.9077    3.3237    7.5441 C   0  0  0  0  0  0  0  0  0  0  0  0
   -3.2222    4.1174    7.6175 C   0  0  0  0  0  0  0  0  0  0  0  0
   -2.0943    3.7152    6.7317 N   0  0  0  0  0  0  0  0  0  0  0  0
   -2.4574    1.9146   15.9117 C   0  0  0  0  0  0  0  0  0  0  0  0
    3.4839   -0.4907   16.5756 N   0  0  0  0  0  0  0  0  0  0  0  0
   -1.3301    1.9899   15.0592 C   0  0  0  0  0  0  0  0  0  0  0  0
   -1.4025    2.7383   13.8542 C   0  0  0  0  0  0  0  0  0  0  0  0
   -2.6028    3.4148   13.5029 C   0  0  0  0  0  0  0  0  0  0  0  0
   -3.7435    3.3242   14.3558 C   0  0  0  0  0  0  0  0  0  0  0  0
   -3.6642    2.5761   15.5624 C   0  0  0  0  0  0  0  0  0  0  0  0
    4.1822    0.6854   16.9316 C   0  0  0  0  0  0  0  0  0  0  0  0
    3.3828    1.8315   16.7192 C   0  0  0  0  0  0  0  0  0  0  0  0
    0.9788    2.0553   15.8621 C   0  0  0  0  0  0  0  0  0  0  0  0
   -0.1505    1.3190   15.4116 C   0  0  0  0  0  0  0  0  0  0  0  0
   -0.0839   -0.0989   15.3256 C   0  0  0  0  0  0  0  0  0  0  0  0
    1.1093   -0.7784   15.6918 C   0  0  0  0  0  0  0  0  0  0  0  0
    2.2390   -0.0358   16.1579 C   0  0  0  0  0  0  0  0  0  0  0  0
    2.1752    1.3670   16.2431 C   0  0  0  0  0  0  0  0  0  0  0  0
  1  6  1  0  0  0  0
  2  4  1  0  0  0  0
  3  7  1  0  0  0  0
  4  5  1  0  0  0  0
  6  2  1  0  0  0  0
  7  8  1  0  0  0  0
  8  9  1  0  0  0  0
  9 10  1  0  0  0  0
 10 11  1  0  0  0  0
 10 12  1  0  0  0  0
 11 13  1  0  0  0  0
 13 15  1  0  0  0  0
 14 12  1  0  0  0  0
 15 14  1  0  0  0  0
 16 18  2  0  0  0  0
 16 22  1  0  0  0  0
 17 23  1  0  0  0  0
 17 29  1  0  0  0  0
 18 19  1  0  0  0  0
 18 26  1  0  0  0  0
 19 20  2  0  0  0  0
 20  3  1  0  0  0  0
 20 21  1  0  0  0  0
 21  5  1  0  0  0  0
 21 22  2  0  0  0  0
 23 24  2  0  0  0  0
 24 30  1  0  0  0  0
 25 26  2  0  0  0  0
 25 30  1  0  0  0  0
 26 27  1  0  0  0  0
 27 28  2  0  0  0  0
 28 29  1  0  0  0  0
 29 30  2  0  0  0  0
M  END
>  <CHROM.1>
-175.75626221,-174.35236922,-174.03772985,-149.03943205,80.31498910,-82.30389965
88.11807859,-174.32018346,-107.19464077,-83.32885742,134.34130771,-1.90155871
2.95188530,13.09457747,2.32477050,0.16724798,-1.16193517

>  <Name>
1uts_lig

>  <RI>
0

>  <Rbt.Current_Directory>
/home/itssahil/PROJECTS/Mol_Feturizer/New_Systems/rnas/1uts

>  <Rbt.Executable>
rbdock ($Id: //depot/dev/client3/rdock/2013.1/src/exe/rbdock.cxx#4 $)

>  <Rbt.Library>
libRbt.so (2013.1, Build901 2013/11/27)

>  <Rbt.Parameter_File>
/export/apps/rDock/src/rDock_2013.1_src/data/scripts/dock_solv.prm

>  <Rbt.Receptor>
prm/pocket_docking_7.prm

>  <SCORE>
-40.3093

>  <SCORE.INTER>
-42.0125

>  <SCORE.INTER.CONST>
1

>  <SCORE.INTER.POLAR>
-2.26327

>  <SCORE.INTER.ROT>
10

>  <SCORE.INTER.SOLV>
12.7914

>  <SCORE.INTER.VDW>
-34.9946

>  <SCORE.INTER.norm>
-1.40042

>  <SCORE.INTRA>
1.70323

>  <SCORE.INTRA.DIHEDRAL>
-1.42632

>  <SCORE.INTRA.DIHEDRAL.0>
18.0451

>  <SCORE.INTRA.POLAR>
0.196815

>  <SCORE.INTRA.POLAR.0>
-0.196815

>  <SCORE.INTRA.REPUL>
0

>  <SCORE.INTRA.REPUL.0>
0

>  <SCORE.INTRA.SOLV>
-0.337707

>  <SCORE.INTRA.SOLV.lig_0>
-14.7906

>  <SCORE.INTRA.VDW>
1.91607

>  <SCORE.INTRA.VDW.0>
-0.411701

>  <SCORE.INTRA.norm>
0.0567744

>  <SCORE.RESTR>
0

>  <SCORE.RESTR.CAVITY>
0

>  <SCORE.RESTR.norm>
0

>  <SCORE.SYSTEM>
0

>  <SCORE.SYSTEM.CONST>
0

>  <SCORE.SYSTEM.DIHEDRAL>
0

>  <SCORE.SYSTEM.SOLV>
0

>  <SCORE.SYSTEM.norm>
0

>  <SCORE.heavy>
30

>  <SCORE.norm>
-1.34364

>  <RMSD>
10.035

$$$$
1uts_lig
 OpenBabel11021811413D
libRbt.so/2013.1/901 2013/11/27
 30 33  0  0  0  0  0  0  0  0999 V2000
   -2.0292    6.5300   11.9947 N   0  0  0  0  0  0  0  0  0  0  0  0
   -2.9316    4.2466   12.0889 C   0  0  0  0  0  0  0  0  0  0  0  0
   -3.1240    4.6627   16.3939 C   0  0  0  0  0  0  0  0  0  0  0  0
   -1.7787    3.7175   12.9469 C   0  0  0  0  0  0  0  0  0  0  0  0
   -2.3114    3.0233   14.0845 O   0  0  0  0  0  0  0  0  0  0  0  0
   -2.4194    5.3609   11.1746 C   0  0  0  0  0  0  0  0  0  0  0  0
   -4.2355    3.6977   16.5537 N   0  0  0  0  0  0  0  0  0  0  0  0
   -5.5228    4.4320   16.6747 C   0  0  0  0  0  0  0  0  0  0  0  0
   -6.6917    3.4470   16.5795 C   0  0  0  0  0  0  0  0  0  0  0  0
   -7.4196    3.6677   15.3098 N   0  0  0  0  0  0  0  0  0  0  0  0
   -8.7884    3.0861   15.4195 C   0  0  0  0  0  0  0  0  0  0  0  0
   -6.6701    3.0266   14.1926 C   0  0  0  0  0  0  0  0  0  0  0  0
   -9.5463    3.3101   14.1009 C   0  0  0  0  0  0  0  0  0  0  0  0
   -7.4301    3.2470   12.8722 C   0  0  0  0  0  0  0  0  0  0  0  0
   -8.7978    2.6680   12.9834 N   0  0  0  0  0  0  0  0  0  0  0  0
    0.7293    2.5766   16.2722 C   0  0  0  0  0  0  0  0  0  0  0  0
    4.0271    3.5890   21.6719 N   0  0  0  0  0  0  0  0  0  0  0  0
    0.3842    3.3690   17.3930 C   0  0  0  0  0  0  0  0  0  0  0  0
   -0.8658    4.0427   17.4258 C   0  0  0  0  0  0  0  0  0  0  0  0
   -1.7731    3.9212   16.3377 C   0  0  0  0  0  0  0  0  0  0  0  0
   -1.4162    3.1348   15.2014 C   0  0  0  0  0  0  0  0  0  0  0  0
   -0.1649    2.4602   15.1754 C   0  0  0  0  0  0  0  0  0  0  0  0
    4.0766    2.2004   21.9310 C   0  0  0  0  0  0  0  0  0  0  0  0
    3.2203    1.4926   21.0573 C   0  0  0  0  0  0  0  0  0  0  0  0
    1.7088    2.3242   19.1632 C   0  0  0  0  0  0  0  0  0  0  0  0
    1.2845    3.4853   18.4615 C   0  0  0  0  0  0  0  0  0  0  0  0
    1.7800    4.7632   18.8404 C   0  0  0  0  0  0  0  0  0  0  0  0
    2.6997    4.8787   19.9177 C   0  0  0  0  0  0  0  0  0  0  0  0
    3.1353    3.7073   20.6127 C   0  0  0  0  0  0  0  0  0  0  0  0
    2.6457    2.4422   20.2396 C   0  0  0  0  0  0  0  0  0  0  0  0
  1  6  1  0  0  0  0
  2  4  1  0  0  0  0
  3  7  1  0  0  0  0
  4  5  1  0  0  0  0
  6  2  1  0  0  0  0
  7  8  1  0  0  0  0
  8  9  1  0  0  0  0
  9 10  1  0  0  0  0
 10 11  1  0  0  0  0
 10 12  1  0  0  0  0
 11 13  1  0  0  0  0
 13 15  1  0  0  0  0
 14 12  1  0  0  0  0
 15 14  1  0  0  0  0
 16 18  2  0  0  0  0
 16 22  1  0  0  0  0
 17 23  1  0  0  0  0
 17 29  1  0  0  0  0
 18 19  1  0  0  0  0
 18 26  1  0  0  0  0
 19 20  2  0  0  0  0
 20  3  1  0  0  0  0
 20 21  1  0  0  0  0
 21  5  1  0  0  0  0
 21 22  2  0  0  0  0
 23 24  2  0  0  0  0
 24 30  1  0  0  0  0
 25 26  2  0  0  0  0
 25 30  1  0  0  0  0
 26 27  1  0  0  0  0
 27 28  2  0  0  0  0
 28 29  1  0  0  0  0
 29 30  2  0  0  0  0
M  END
>  <CHROM.1>
65.74005486,160.77015114,177.17312839,-149.62675753,-67.01175590,169.59108727
-110.93380470,-160.09067904,-59.18156829,-110.14815155,110.36513528,-2.13377263
3.58266255,16.29412842,-2.57794182,0.12112636,1.83587687

>  <Name>
1uts_lig

>  <RI>
0

>  <Rbt.Current_Directory>
/home/itssahil/PROJECTS/Mol_Feturizer/New_Systems/rnas/1uts

>  <Rbt.Executable>
rbdock ($Id: //depot/dev/client3/rdock/2013.1/src/exe/rbdock.cxx#4 $)

>  <Rbt.Library>
libRbt.so (2013.1, Build901 2013/11/27)

>  <Rbt.Parameter_File>
/export/apps/rDock/src/rDock_2013.1_src/data/scripts/dock_solv.prm

>  <Rbt.Receptor>
prm/pocket_docking_4.prm

>  <SCORE>
-35.7179

>  <SCORE.INTER>
-36.2005

>  <SCORE.INTER.CONST>
1

>  <SCORE.INTER.POLAR>
-3.55352

>  <SCORE.INTER.ROT>
10

>  <SCORE.INTER.SOLV>
9.50377

>  <SCORE.INTER.VDW>
-25.7232

>  <SCORE.INTER.norm>
-1.20668

>  <SCORE.INTRA>
0.340641

>  <SCORE.INTRA.DIHEDRAL>
1.98832

>  <SCORE.INTRA.DIHEDRAL.0>
18.0451

>  <SCORE.INTRA.POLAR>
0.196815

>  <SCORE.INTRA.POLAR.0>
-0.196815

>  <SCORE.INTRA.REPUL>
0

>  <SCORE.INTRA.REPUL.0>
0

>  <SCORE.INTRA.SOLV>
-0.251078

>  <SCORE.INTRA.SOLV.lig_0>
-14.7906

>  <SCORE.INTRA.VDW>
-1.19715

>  <SCORE.INTRA.VDW.0>
-0.411701

>  <SCORE.INTRA.norm>
0.0113547

>  <SCORE.RESTR>
0.141978

>  <SCORE.RESTR.CAVITY>
0.141978

>  <SCORE.RESTR.norm>
0.00473259

>  <SCORE.SYSTEM>
0

>  <SCORE.SYSTEM.CONST>
0

>  <SCORE.SYSTEM.DIHEDRAL>
0

>  <SCORE.SYSTEM.SOLV>
0

>  <SCORE.SYSTEM.norm>
0

>  <SCORE.heavy>
30

>  <SCORE.norm>
-1.1906

>  <RMSD>
10.044

$$$$
1uts_lig
 OpenBabel11021811413D
libRbt.so/2013.1/901 2013/11/27
 30 33  0  0  0  0  0  0  0  0999 V2000
   -6.4247    4.0582   14.7615 N   0  0  0  0  0  0  0  0  0  0  0  0
   -6.0225    1.7189   15.3964 C   0  0  0  0  0  0  0  0  0  0  0  0
   -2.3103    2.7649   14.0695 C   0  0  0  0  0  0  0  0  0  0  0  0
   -4.5371    1.7995   15.7601 C   0  0  0  0  0  0  0  0  0  0  0  0
   -3.8740    0.6045   15.3219 O   0  0  0  0  0  0  0  0  0  0  0  0
   -6.7155    3.0268   15.7828 C   0  0  0  0  0  0  0  0  0  0  0  0
   -1.2600    3.4902   13.3193 N   0  0  0  0  0  0  0  0  0  0  0  0
   -1.8913    4.4357   12.3610 C   0  0  0  0  0  0  0  0  0  0  0  0
   -1.7603    3.8925   10.9351 C   0  0  0  0  0  0  0  0  0  0  0  0
   -2.1527    4.9436    9.9696 N   0  0  0  0  0  0  0  0  0  0  0  0
   -2.3480    4.3288    8.6250 C   0  0  0  0  0  0  0  0  0  0  0  0
   -1.0895    5.9864    9.9151 C   0  0  0  0  0  0  0  0  0  0  0  0
   -2.7520    5.4183    7.6185 C   0  0  0  0  0  0  0  0  0  0  0  0
   -1.4912    7.0761    8.9048 C   0  0  0  0  0  0  0  0  0  0  0  0
   -1.6884    6.4610    7.5627 N   0  0  0  0  0  0  0  0  0  0  0  0
   -0.4630   -0.1987   16.7188 C   0  0  0  0  0  0  0  0  0  0  0  0
    5.8569    0.7469   17.1434 N   0  0  0  0  0  0  0  0  0  0  0  0
    0.3269    0.8131   16.1225 C   0  0  0  0  0  0  0  0  0  0  0  0
   -0.2780    1.7700   15.2647 C   0  0  0  0  0  0  0  0  0  0  0  0
   -1.6750    1.7168   15.0053 C   0  0  0  0  0  0  0  0  0  0  0  0
   -2.4668    0.6859   15.5947 C   0  0  0  0  0  0  0  0  0  0  0  0
   -1.8564   -0.2675   16.4550 C   0  0  0  0  0  0  0  0  0  0  0  0
    5.9802   -0.6460   17.3491 C   0  0  0  0  0  0  0  0  0  0  0  0
    4.7265   -1.2874   17.2285 C   0  0  0  0  0  0  0  0  0  0  0  0
    2.4093   -0.3369   16.6890 C   0  0  0  0  0  0  0  0  0  0  0  0
    1.7040    0.8584   16.3817 C   0  0  0  0  0  0  0  0  0  0  0  0
    2.3987    2.0982   16.3310 C   0  0  0  0  0  0  0  0  0  0  0  0
    3.7963    2.1413   16.5848 C   0  0  0  0  0  0  0  0  0  0  0  0
    4.5055    0.9352   16.8800 C   0  0  0  0  0  0  0  0  0  0  0  0
    3.8198   -0.2923   16.9313 C   0  0  0  0  0  0  0  0  0  0  0  0
  1  6  1  0  0  0  0
  2  4  1  0  0  0  0
  3  7  1  0  0  0  0
  4  5  1  0  0  0  0
  6  2  1  0  0  0  0
  7  8  1  0  0  0  0
  8  9  1  0  0  0  0
  9 10  1  0  0  0  0
 10 11  1  0  0  0  0
 10 12  1  0  0  0  0
 11 13  1  0  0  0  0
 13 15  1  0  0  0  0
 14 12  1  0  0  0  0
 15 14  1  0  0  0  0
 16 18  2  0  0  0  0
 16 22  1  0  0  0  0
 17 23  1  0  0  0  0
 17 29  1  0  0  0  0
 18 19  1  0  0  0  0
 18 26  1  0  0  0  0
 19 20  2  0  0  0  0
 20  3  1  0  0  0  0
 20 21  1  0  0  0  0
 21  5  1  0  0  0  0
 21 22  2  0  0  0  0
 23 24  2  0  0  0  0
 24 30  1  0  0  0  0
 25 26  2  0  0  0  0
 25 30  1  0  0  0  0
 26 27  1  0  0  0  0
 27 28  2  0  0  0  0
 28 29  1  0  0  0  0
 29 30  2  0  0  0  0
M  END
>  <CHROM.1>
165.18324266,-176.48314117,176.47448603,177.20982428,78.67667563,-106.04114264
-169.28221743,-166.24505993,28.47855687,13.80723725,-60.75396243,-0.73531229
2.41087747,14.09650727,2.25394335,0.06584313,-0.99139568

>  <Name>
1uts_lig

>  <RI>
0

>  <Rbt.Current_Directory>
/home/itssahil/PROJECTS/Mol_Feturizer/New_Systems/rnas/1uts

>  <Rbt.Executable>
rbdock ($Id: //depot/dev/client3/rdock/2013.1/src/exe/rbdock.cxx#4 $)

>  <Rbt.Library>
libRbt.so (2013.1, Build901 2013/11/27)

>  <Rbt.Parameter_File>
/export/apps/rDock/src/rDock_2013.1_src/data/scripts/dock_solv.prm

>  <Rbt.Receptor>
prm/pocket_docking_8.prm

>  <SCORE>
-35.0525

>  <SCORE.INTER>
-35.0614

>  <SCORE.INTER.CONST>
1

>  <SCORE.INTER.POLAR>
-2.68643

>  <SCORE.INTER.ROT>
10

>  <SCORE.INTER.SOLV>
10.039

>  <SCORE.INTER.VDW>
-28.0325

>  <SCORE.INTER.norm>
-1.16871

>  <SCORE.INTRA>
0.00883663

>  <SCORE.INTRA.DIHEDRAL>
-6.77303

>  <SCORE.INTRA.DIHEDRAL.0>
18.0451

>  <SCORE.INTRA.POLAR>
0.196815

>  <SCORE.INTRA.POLAR.0>
-0.196815

>  <SCORE.INTRA.REPUL>
0

>  <SCORE.INTRA.REPUL.0>
0

>  <SCORE.INTRA.SOLV>
-0.519965

>  <SCORE.INTRA.SOLV.lig_0>
-14.7906

>  <SCORE.INTRA.VDW>
2.98616

>  <SCORE.INTRA.VDW.0>
-0.411701

>  <SCORE.INTRA.norm>
0.000294554

>  <SCORE.RESTR>
0

>  <SCORE.RESTR.CAVITY>
0

>  <SCORE.RESTR.norm>
0

>  <SCORE.SYSTEM>
0

>  <SCORE.SYSTEM.CONST>
0

>  <SCORE.SYSTEM.DIHEDRAL>
0

>  <SCORE.SYSTEM.SOLV>
0

>  <SCORE.SYSTEM.norm>
0

>  <SCORE.heavy>
30

>  <SCORE.norm>
-1.16842

>  <RMSD>
10.053

$$$$
1uts_lig
 OpenBabel11021811413D
libRbt.so/2013.1/901 2013/11/27
 30 33  0  0  0  0  0  0  0  0999 V2000
   -1.3670    4.9072    9.9951 N   0  0  0  0  0  0  0  0  0  0  0  0
   -2.4573    5.3173   12.1585 C   0  0  0  0  0  0  0  0  0  0  0  0
   -2.8750    2.6977   16.0067 C   0  0  0  0  0  0  0  0  0  0  0  0
   -1.6237    4.3166   12.9642 C   0  0  0  0  0  0  0  0  0  0  0  0
   -1.5655    4.7397   14.3344 O   0  0  0  0  0  0  0  0  0  0  0  0
   -2.6455    4.7955   10.7329 C   0  0  0  0  0  0  0  0  0  0  0  0
   -3.5168    4.0312   16.0517 N   0  0  0  0  0  0  0  0  0  0  0  0
   -4.6760    4.0608   15.1209 C   0  0  0  0  0  0  0  0  0  0  0  0
   -5.9340    3.5721   15.8449 C   0  0  0  0  0  0  0  0  0  0  0  0
   -7.1001    3.6913   14.9410 N   0  0  0  0  0  0  0  0  0  0  0  0
   -8.3373    3.3085   15.6804 C   0  0  0  0  0  0  0  0  0  0  0  0
   -6.9034    2.8027   13.7609 C   0  0  0  0  0  0  0  0  0  0  0  0
   -9.5503    3.4273   14.7435 C   0  0  0  0  0  0  0  0  0  0  0  0
   -8.1192    2.9181   12.8239 C   0  0  0  0  0  0  0  0  0  0  0  0
   -9.3547    2.5379   13.5637 N   0  0  0  0  0  0  0  0  0  0  0  0
    1.4871    3.0783   15.8017 C   0  0  0  0  0  0  0  0  0  0  0  0
    4.3510   -1.2995   19.4900 N   0  0  0  0  0  0  0  0  0  0  0  0
    0.8968    2.0953   16.6315 C   0  0  0  0  0  0  0  0  0  0  0  0
   -0.5174    1.9777   16.6936 C   0  0  0  0  0  0  0  0  0  0  0  0
   -1.3420    2.8421   15.9226 C   0  0  0  0  0  0  0  0  0  0  0  0
   -0.7451    3.8434   15.0990 C   0  0  0  0  0  0  0  0  0  0  0  0
    0.6711    3.9544   15.0384 C   0  0  0  0  0  0  0  0  0  0  0  0
    5.2361   -1.5849   18.4257 C   0  0  0  0  0  0  0  0  0  0  0  0
    4.8251   -0.9363   17.2391 C   0  0  0  0  0  0  0  0  0  0  0  0
    2.8383    0.6168   16.7869 C   0  0  0  0  0  0  0  0  0  0  0  0
    1.7163    1.2475   17.3900 C   0  0  0  0  0  0  0  0  0  0  0  0
    1.4308    1.0226   18.7648 C   0  0  0  0  0  0  0  0  0  0  0  0
    2.2677    0.1703   19.5349 C   0  0  0  0  0  0  0  0  0  0  0  0
    3.4037   -0.4517   18.9287 C   0  0  0  0  0  0  0  0  0  0  0  0
    3.6873   -0.2309   17.5685 C   0  0  0  0  0  0  0  0  0  0  0  0
  1  6  1  0  0  0  0
  2  4  1  0  0  0  0
  3  7  1  0  0  0  0
  4  5  1  0  0  0  0
  6  2  1  0  0  0  0
  7  8  1  0  0  0  0
  8  9  1  0  0  0  0
  9 10  1  0  0  0  0
 10 11  1  0  0  0  0
 10 12  1  0  0  0  0
 11 13  1  0  0  0  0
 13 15  1  0  0  0  0
 14 12  1  0  0  0  0
 15 14  1  0  0  0  0
 16 18  2  0  0  0  0
 16 22  1  0  0  0  0
 17 23  1  0  0  0  0
 17 29  1  0  0  0  0
 18 19  1  0  0  0  0
 18 26  1  0  0  0  0
 19 20  2  0  0  0  0
 20  3  1  0  0  0  0
 20 21  1  0  0  0  0
 21  5  1  0  0  0  0
 21 22  2  0  0  0  0
 23 24  2  0  0  0  0
 24 30  1  0  0  0  0
 25 26  2  0  0  0  0
 25 30  1  0  0  0  0
 26 27  1  0  0  0  0
 27 28  2  0  0  0  0
 28 29  1  0  0  0  0
 29 30  2  0  0  0  0
M  END
>  <CHROM.1>
55.31923857,-174.08623185,134.77834604,-177.76575005,-72.33740049,88.00233506
176.18178377,-175.93320399,-46.69923671,138.48016135,-100.77202684,-1.72879177
2.53565861,15.48362107,-2.64316920,-0.06254786,2.16522769

>  <Name>
1uts_lig

>  <RI>
0

>  <Rbt.Current_Directory>
/home/itssahil/PROJECTS/Mol_Feturizer/New_Systems/rnas/1uts

>  <Rbt.Executable>
rbdock ($Id: //depot/dev/client3/rdock/2013.1/src/exe/rbdock.cxx#4 $)

>  <Rbt.Library>
libRbt.so (2013.1, Build901 2013/11/27)

>  <Rbt.Parameter_File>
/export/apps/rDock/src/rDock_2013.1_src/data/scripts/dock_solv.prm

>  <Rbt.Receptor>
prm/pocket_docking_4.prm

>  <SCORE>
-38.0304

>  <SCORE.INTER>
-35.5078

>  <SCORE.INTER.CONST>
1

>  <SCORE.INTER.POLAR>
-2.61975

>  <SCORE.INTER.ROT>
10

>  <SCORE.INTER.SOLV>
9.02762

>  <SCORE.INTER.VDW>
-28.2152

>  <SCORE.INTER.norm>
-1.18359

>  <SCORE.INTRA>
-2.53092

>  <SCORE.INTRA.DIHEDRAL>
-4.59022

>  <SCORE.INTRA.DIHEDRAL.0>
18.0451

>  <SCORE.INTRA.POLAR>
-0.393089

>  <SCORE.INTRA.POLAR.0>
-0.196815

>  <SCORE.INTRA.REPUL>
0

>  <SCORE.INTRA.REPUL.0>
0

>  <SCORE.INTRA.SOLV>
-0.172817

>  <SCORE.INTRA.SOLV.lig_0>
-14.7906

>  <SCORE.INTRA.VDW>
1.1871

>  <SCORE.INTRA.VDW.0>
-0.411701

>  <SCORE.INTRA.norm>
-0.0843639

>  <SCORE.RESTR>
0.00831389

>  <SCORE.RESTR.CAVITY>
0.00831389

>  <SCORE.RESTR.norm>
0.00027713

>  <SCORE.SYSTEM>
0

>  <SCORE.SYSTEM.CONST>
0

>  <SCORE.SYSTEM.DIHEDRAL>
0

>  <SCORE.SYSTEM.SOLV>
0

>  <SCORE.SYSTEM.norm>
0

>  <SCORE.heavy>
30

>  <SCORE.norm>
-1.26768

>  <RMSD>
10.058

$$$$
1uts_lig
 OpenBabel11021811413D
libRbt.so/2013.1/901 2013/11/27
 30 33  0  0  0  0  0  0  0  0999 V2000
   -1.3889    3.7339   10.3026 N   0  0  0  0  0  0  0  0  0  0  0  0
   -2.8150    5.0055   11.8474 C   0  0  0  0  0  0  0  0  0  0  0  0
   -4.0471    4.6050   16.4314 C   0  0  0  0  0  0  0  0  0  0  0  0
   -3.8807    3.9493   12.1536 C   0  0  0  0  0  0  0  0  0  0  0  0
   -4.1639    3.9524   13.5605 O   0  0  0  0  0  0  0  0  0  0  0  0
   -2.3488    4.8568   10.3980 C   0  0  0  0  0  0  0  0  0  0  0  0
   -5.3532    4.2201   15.8498 N   0  0  0  0  0  0  0  0  0  0  0  0
   -5.9215    3.0749   16.6090 C   0  0  0  0  0  0  0  0  0  0  0  0
   -7.4429    3.2218   16.7059 C   0  0  0  0  0  0  0  0  0  0  0  0
   -8.0017    3.4601   15.3562 N   0  0  0  0  0  0  0  0  0  0  0  0
   -9.4835    3.2983   15.4012 C   0  0  0  0  0  0  0  0  0  0  0  0
   -7.4018    2.4920   14.3950 C   0  0  0  0  0  0  0  0  0  0  0  0
  -10.0672    3.5413   14.0000 C   0  0  0  0  0  0  0  0  0  0  0  0
   -7.9884    2.7319   12.9922 C   0  0  0  0  0  0  0  0  0  0  0  0
   -9.4685    2.5725   13.0385 N   0  0  0  0  0  0  0  0  0  0  0  0
   -0.7572    2.5562   14.3835 C   0  0  0  0  0  0  0  0  0  0  0  0
    4.1386    1.6180   18.4238 N   0  0  0  0  0  0  0  0  0  0  0  0
   -0.6543    2.8677   15.7603 C   0  0  0  0  0  0  0  0  0  0  0  0
   -1.7238    3.5321   16.4177 C   0  0  0  0  0  0  0  0  0  0  0  0
   -2.8990    3.8826   15.6979 C   0  0  0  0  0  0  0  0  0  0  0  0
   -2.9940    3.5821   14.3058 C   0  0  0  0  0  0  0  0  0  0  0  0
   -1.9215    2.9141   13.6538 C   0  0  0  0  0  0  0  0  0  0  0  0
    5.0204    2.1533   17.4575 C   0  0  0  0  0  0  0  0  0  0  0  0
    4.3054    2.6812   16.3585 C   0  0  0  0  0  0  0  0  0  0  0  0
    1.7855    2.8233   15.9182 C   0  0  0  0  0  0  0  0  0  0  0  0
    0.5081    2.5204   16.4630 C   0  0  0  0  0  0  0  0  0  0  0  0
    0.4113    1.8711   17.7245 C   0  0  0  0  0  0  0  0  0  0  0  0
    1.5902    1.5278   18.4401 C   0  0  0  0  0  0  0  0  0  0  0  0
    2.8736    1.8464   17.8957 C   0  0  0  0  0  0  0  0  0  0  0  0
    2.9713    2.4882   16.6475 C   0  0  0  0  0  0  0  0  0  0  0  0
  1  6  1  0  0  0  0
  2  4  1  0  0  0  0
  3  7  1  0  0  0  0
  4  5  1  0  0  0  0
  6  2  1  0  0  0  0
  7  8  1  0  0  0  0
  8  9  1  0  0  0  0
  9 10  1  0  0  0  0
 10 11  1  0  0  0  0
 10 12  1  0  0  0  0
 11 13  1  0  0  0  0
 13 15  1  0  0  0  0
 14 12  1  0  0  0  0
 15 14  1  0  0  0  0
 16 18  2  0  0  0  0
 16 22  1  0  0  0  0
 17 23  1  0  0  0  0
 17 29  1  0  0  0  0
 18 19  1  0  0  0  0
 18 26  1  0  0  0  0
 19 20  2  0  0  0  0
 20  3  1  0  0  0  0
 20 21  1  0  0  0  0
 21  5  1  0  0  0  0
 21 22  2  0  0  0  0
 23 24  2  0  0  0  0
 24 30  1  0  0  0  0
 25 26  2  0  0  0  0
 25 30  1  0  0  0  0
 26 27  1  0  0  0  0
 27 28  2  0  0  0  0
 28 29  1  0  0  0  0
 29 30  2  0  0  0  0
M  END
>  <CHROM.1>
42.45933854,171.04911928,93.20481555,-63.05832112,-78.96215016,143.53261655
51.06000368,167.40043232,47.65694895,-148.02520041,161.64921369,-2.75983377
3.14594874,15.05771074,-0.27711716,0.03601091,-1.32905053

>  <Name>
1uts_lig

>  <RI>
0

>  <Rbt.Current_Directory>
/home/itssahil/PROJECTS/Mol_Feturizer/New_Systems/rnas/1uts

>  <Rbt.Executable>
rbdock ($Id: //depot/dev/client3/rdock/2013.1/src/exe/rbdock.cxx#4 $)

>  <Rbt.Library>
libRbt.so (2013.1, Build901 2013/11/27)

>  <Rbt.Parameter_File>
/export/apps/rDock/src/rDock_2013.1_src/data/scripts/dock_solv.prm

>  <Rbt.Receptor>
prm/pocket_docking_4.prm

>  <SCORE>
-29.0187

>  <SCORE.INTER>
-31.9467

>  <SCORE.INTER.CONST>
1

>  <SCORE.INTER.POLAR>
-2.31753

>  <SCORE.INTER.ROT>
10

>  <SCORE.INTER.SOLV>
10.4163

>  <SCORE.INTER.VDW>
-27.3114

>  <SCORE.INTER.norm>
-1.06489

>  <SCORE.INTRA>
2.62147

>  <SCORE.INTRA.DIHEDRAL>
-6.7269

>  <SCORE.INTRA.DIHEDRAL.0>
18.0451

>  <SCORE.INTRA.POLAR>
-0.708818

>  <SCORE.INTRA.POLAR.0>
-0.196815

>  <SCORE.INTRA.REPUL>
0

>  <SCORE.INTRA.REPUL.0>
0

>  <SCORE.INTRA.SOLV>
0.409723

>  <SCORE.INTRA.SOLV.lig_0>
-14.7906

>  <SCORE.INTRA.VDW>
8.19004

>  <SCORE.INTRA.VDW.0>
-0.411701

>  <SCORE.INTRA.norm>
0.0873824

>  <SCORE.RESTR>
0.306472

>  <SCORE.RESTR.CAVITY>
0.306472

>  <SCORE.RESTR.norm>
0.0102157

>  <SCORE.SYSTEM>
0

>  <SCORE.SYSTEM.CONST>
0

>  <SCORE.SYSTEM.DIHEDRAL>
0

>  <SCORE.SYSTEM.SOLV>
0

>  <SCORE.SYSTEM.norm>
0

>  <SCORE.heavy>
30

>  <SCORE.norm>
-0.96729

>  <RMSD>
10.065

$$$$
1uts_lig
 OpenBabel11021811413D
libRbt.so/2013.1/901 2013/11/27
 30 33  0  0  0  0  0  0  0  0999 V2000
   -7.8147    0.8878   13.6173 N   0  0  0  0  0  0  0  0  0  0  0  0
   -7.0948    3.2189   13.3262 C   0  0  0  0  0  0  0  0  0  0  0  0
   -2.2359    2.6198   14.1141 C   0  0  0  0  0  0  0  0  0  0  0  0
   -6.1443    3.2005   14.5268 C   0  0  0  0  0  0  0  0  0  0  0  0
   -4.9138    3.8473   14.1699 O   0  0  0  0  0  0  0  0  0  0  0  0
   -8.2813    2.2926   13.5988 C   0  0  0  0  0  0  0  0  0  0  0  0
   -1.1808    3.3961   13.4241 N   0  0  0  0  0  0  0  0  0  0  0  0
   -1.8060    4.3991   12.5218 C   0  0  0  0  0  0  0  0  0  0  0  0
   -1.9463    3.8129   11.1139 C   0  0  0  0  0  0  0  0  0  0  0  0
   -2.8477    4.6696   10.3112 N   0  0  0  0  0  0  0  0  0  0  0  0
   -4.2534    4.2024   10.4832 C   0  0  0  0  0  0  0  0  0  0  0  0
   -2.4483    4.6000    8.8772 C   0  0  0  0  0  0  0  0  0  0  0  0
   -5.1924    5.0876    9.6478 C   0  0  0  0  0  0  0  0  0  0  0  0
   -3.3902    5.4831    8.0390 C   0  0  0  0  0  0  0  0  0  0  0  0
   -4.7941    5.0174    8.2132 N   0  0  0  0  0  0  0  0  0  0  0  0
   -3.7042    4.8235   17.6073 C   0  0  0  0  0  0  0  0  0  0  0  0
    0.9406    4.5505   22.1271 N   0  0  0  0  0  0  0  0  0  0  0  0
   -2.4179    4.2332   17.6274 C   0  0  0  0  0  0  0  0  0  0  0  0
   -1.9485    3.5201   16.4923 C   0  0  0  0  0  0  0  0  0  0  0  0
   -2.7651    3.3999   15.3345 C   0  0  0  0  0  0  0  0  0  0  0  0
   -4.0683    3.9820   15.3223 C   0  0  0  0  0  0  0  0  0  0  0  0
   -4.5317    4.6973   16.4604 C   0  0  0  0  0  0  0  0  0  0  0  0
    1.7242    3.4095   21.8413 C   0  0  0  0  0  0  0  0  0  0  0  0
    1.2860    2.7800   20.6541 C   0  0  0  0  0  0  0  0  0  0  0  0
   -0.5957    3.4022   19.0305 C   0  0  0  0  0  0  0  0  0  0  0  0
   -1.6190    4.3546   18.7731 C   0  0  0  0  0  0  0  0  0  0  0  0
   -1.8261    5.4340   19.6755 C   0  0  0  0  0  0  0  0  0  0  0  0
   -1.0095    5.5612   20.8316 C   0  0  0  0  0  0  0  0  0  0  0  0
    0.0282    4.6093   21.0805 C   0  0  0  0  0  0  0  0  0  0  0  0
    0.2342    3.5404   20.1892 C   0  0  0  0  0  0  0  0  0  0  0  0
  1  6  1  0  0  0  0
  2  4  1  0  0  0  0
  3  7  1  0  0  0  0
  4  5  1  0  0  0  0
  6  2  1  0  0  0  0
  7  8  1  0  0  0  0
  8  9  1  0  0  0  0
  9 10  1  0  0  0  0
 10 11  1  0  0  0  0
 10 12  1  0  0  0  0
 11 13  1  0  0  0  0
 13 15  1  0  0  0  0
 14 12  1  0  0  0  0
 15 14  1  0  0  0  0
 16 18  2  0  0  0  0
 16 22  1  0  0  0  0
 17 23  1  0  0  0  0
 17 29  1  0  0  0  0
 18 19  1  0  0  0  0
 18 26  1  0  0  0  0
 19 20  2  0  0  0  0
 20  3  1  0  0  0  0
 20 21  1  0  0  0  0
 21  5  1  0  0  0  0
 21 22  2  0  0  0  0
 23 24  2  0  0  0  0
 24 30  1  0  0  0  0
 25 26  2  0  0  0  0
 25 30  1  0  0  0  0
 26 27  1  0  0  0  0
 27 28  2  0  0  0  0
 28 29  1  0  0  0  0
 29 30  2  0  0  0  0
M  END
>  <CHROM.1>
-40.30928590,168.51157127,-82.01130051,173.24299679,-68.34613996,-93.14284719
166.52825799,-89.38032506,156.26367242,-72.57383829,121.36531278,-2.91758830
3.94415428,15.09032929,2.00915395,-0.26657763,-1.45142758

>  <Name>
1uts_lig

>  <RI>
0

>  <Rbt.Current_Directory>
/home/itssahil/PROJECTS/Mol_Feturizer/New_Systems/rnas/1uts

>  <Rbt.Executable>
rbdock ($Id: //depot/dev/client3/rdock/2013.1/src/exe/rbdock.cxx#4 $)

>  <Rbt.Library>
libRbt.so (2013.1, Build901 2013/11/27)

>  <Rbt.Parameter_File>
/export/apps/rDock/src/rDock_2013.1_src/data/scripts/dock_solv.prm

>  <Rbt.Receptor>
prm/pocket_docking_5.prm

>  <SCORE>
-28.2586

>  <SCORE.INTER>
-27.1023

>  <SCORE.INTER.CONST>
1

>  <SCORE.INTER.POLAR>
-1.86105

>  <SCORE.INTER.ROT>
10

>  <SCORE.INTER.SOLV>
9.03331

>  <SCORE.INTER.VDW>
-25.1425

>  <SCORE.INTER.norm>
-0.90341

>  <SCORE.INTRA>
-1.15629

>  <SCORE.INTRA.DIHEDRAL>
-5.60635

>  <SCORE.INTRA.DIHEDRAL.0>
18.0451

>  <SCORE.INTRA.POLAR>
0.196815

>  <SCORE.INTRA.POLAR.0>
-0.196815

>  <SCORE.INTRA.REPUL>
0

>  <SCORE.INTRA.REPUL.0>
0

>  <SCORE.INTRA.SOLV>
-0.371614

>  <SCORE.INTRA.SOLV.lig_0>
-14.7906

>  <SCORE.INTRA.VDW>
1.16352

>  <SCORE.INTRA.VDW.0>
-0.411701

>  <SCORE.INTRA.norm>
-0.038543

>  <SCORE.RESTR>
0

>  <SCORE.RESTR.CAVITY>
0

>  <SCORE.RESTR.norm>
0

>  <SCORE.SYSTEM>
0

>  <SCORE.SYSTEM.CONST>
0

>  <SCORE.SYSTEM.DIHEDRAL>
0

>  <SCORE.SYSTEM.SOLV>
0

>  <SCORE.SYSTEM.norm>
0

>  <SCORE.heavy>
30

>  <SCORE.norm>
-0.941953

>  <RMSD>
10.072

$$$$
1uts_lig
 OpenBabel11021811413D
libRbt.so/2013.1/901 2013/11/27
 30 33  0  0  0  0  0  0  0  0999 V2000
   -4.2711    3.9343   10.8323 N   0  0  0  0  0  0  0  0  0  0  0  0
   -1.9671    3.8512   11.6820 C   0  0  0  0  0  0  0  0  0  0  0  0
   -2.7480    2.8294   16.0159 C   0  0  0  0  0  0  0  0  0  0  0  0
   -1.4411    3.2667   12.9961 C   0  0  0  0  0  0  0  0  0  0  0  0
   -1.2685    4.3234   13.9518 O   0  0  0  0  0  0  0  0  0  0  0  0
   -3.3697    4.4213   11.9008 C   0  0  0  0  0  0  0  0  0  0  0  0
   -3.4902    4.0734   15.7096 N   0  0  0  0  0  0  0  0  0  0  0  0
   -4.5489    3.7904   14.7045 C   0  0  0  0  0  0  0  0  0  0  0  0
   -5.5502    2.7828   15.2768 C   0  0  0  0  0  0  0  0  0  0  0  0
   -6.6294    2.5470   14.2917 N   0  0  0  0  0  0  0  0  0  0  0  0
   -7.7565    3.4853   14.5620 C   0  0  0  0  0  0  0  0  0  0  0  0
   -7.0926    1.1343   14.3948 C   0  0  0  0  0  0  0  0  0  0  0  0
   -8.8811    3.2407   13.5429 C   0  0  0  0  0  0  0  0  0  0  0  0
   -8.2214    0.8892   13.3773 C   0  0  0  0  0  0  0  0  0  0  0  0
   -9.3457    1.8283   13.6465 N   0  0  0  0  0  0  0  0  0  0  0  0
    1.5464    3.6352   16.3673 C   0  0  0  0  0  0  0  0  0  0  0  0
    3.8680    1.3784   21.8874 N   0  0  0  0  0  0  0  0  0  0  0  0
    0.8688    2.9292   17.3899 C   0  0  0  0  0  0  0  0  0  0  0  0
   -0.5229    2.6719   17.2699 C   0  0  0  0  0  0  0  0  0  0  0  0
   -1.2372    3.1185   16.1244 C   0  0  0  0  0  0  0  0  0  0  0  0
   -0.5553    3.8444   15.1021 C   0  0  0  0  0  0  0  0  0  0  0  0
    0.8385    4.0964   15.2261 C   0  0  0  0  0  0  0  0  0  0  0  0
    4.9422    2.2777   21.6999 C   0  0  0  0  0  0  0  0  0  0  0  0
    4.7534    3.0541   20.5341 C   0  0  0  0  0  0  0  0  0  0  0  0
    2.8348    3.0786   18.8363 C   0  0  0  0  0  0  0  0  0  0  0  0
    1.5795    2.4933   18.5171 C   0  0  0  0  0  0  0  0  0  0  0  0
    1.0429    1.4704   19.3465 C   0  0  0  0  0  0  0  0  0  0  0  0
    1.7600    1.0359   20.4940 C   0  0  0  0  0  0  0  0  0  0  0  0
    3.0161    1.6364   20.8202 C   0  0  0  0  0  0  0  0  0  0  0  0
    3.5488    2.6482   20.0005 C   0  0  0  0  0  0  0  0  0  0  0  0
  1  6  1  0  0  0  0
  2  4  1  0  0  0  0
  3  7  1  0  0  0  0
  4  5  1  0  0  0  0
  6  2  1  0  0  0  0
  7  8  1  0  0  0  0
  8  9  1  0  0  0  0
  9 10  1  0  0  0  0
 10 11  1  0  0  0  0
 10 12  1  0  0  0  0
 11 13  1  0  0  0  0
 13 15  1  0  0  0  0
 14 12  1  0  0  0  0
 15 14  1  0  0  0  0
 16 18  2  0  0  0  0
 16 22  1  0  0  0  0
 17 23  1  0  0  0  0
 17 29  1  0  0  0  0
 18 19  1  0  0  0  0
 18 26  1  0  0  0  0
 19 20  2  0  0  0  0
 20  3  1  0  0  0  0
 20 21  1  0  0  0  0
 21  5  1  0  0  0  0
 21 22  2  0  0  0  0
 23 24  2  0  0  0  0
 24 30  1  0  0  0  0
 25 26  2  0  0  0  0
 25 30  1  0  0  0  0
 26 27  1  0  0  0  0
 27 28  2  0  0  0  0
 28 29  1  0  0  0  0
 29 30  2  0  0  0  0
M  END
>  <CHROM.1>
174.04378686,-65.38144110,138.74282087,-169.65568840,-131.74755177,61.97953571
177.78259962,-92.44761063,18.87985058,128.77283778,-80.68315706,-1.83271931
2.87628517,16.05880139,-2.58426715,0.21955072,1.98280715

>  <Name>
1uts_lig

>  <RI>
0

>  <Rbt.Current_Directory>
/home/itssahil/PROJECTS/Mol_Feturizer/New_Systems/rnas/1uts

>  <Rbt.Executable>
rbdock ($Id: //depot/dev/client3/rdock/2013.1/src/exe/rbdock.cxx#4 $)

>  <Rbt.Library>
libRbt.so (2013.1, Build901 2013/11/27)

>  <Rbt.Parameter_File>
/export/apps/rDock/src/rDock_2013.1_src/data/scripts/dock_solv.prm

>  <Rbt.Receptor>
prm/pocket_docking_4.prm

>  <SCORE>
-25.8213

>  <SCORE.INTER>
-26.2116

>  <SCORE.INTER.CONST>
1

>  <SCORE.INTER.POLAR>
-1.73633

>  <SCORE.INTER.ROT>
10

>  <SCORE.INTER.SOLV>
8.96877

>  <SCORE.INTER.VDW>
-24.9429

>  <SCORE.INTER.norm>
-0.873721

>  <SCORE.INTRA>
0.388073

>  <SCORE.INTRA.DIHEDRAL>
-1.51828

>  <SCORE.INTRA.DIHEDRAL.0>
18.0451

>  <SCORE.INTRA.POLAR>
-0.172215

>  <SCORE.INTRA.POLAR.0>
-0.196815

>  <SCORE.INTRA.REPUL>
0

>  <SCORE.INTRA.REPUL.0>
0

>  <SCORE.INTRA.SOLV>
-0.018196

>  <SCORE.INTRA.SOLV.lig_0>
-14.7906

>  <SCORE.INTRA.VDW>
1.74184

>  <SCORE.INTRA.VDW.0>
-0.411701

>  <SCORE.INTRA.norm>
0.0129358

>  <SCORE.RESTR>
0.00230685

>  <SCORE.RESTR.CAVITY>
0.00230685

>  <SCORE.RESTR.norm>
7.68951e-05

>  <SCORE.SYSTEM>
0

>  <SCORE.SYSTEM.CONST>
0

>  <SCORE.SYSTEM.DIHEDRAL>
0

>  <SCORE.SYSTEM.SOLV>
0

>  <SCORE.SYSTEM.norm>
0

>  <SCORE.heavy>
30

>  <SCORE.norm>
-0.860709

>  <RMSD>
10.076

$$$$
1uts_lig
 OpenBabel11021811413D
libRbt.so/2013.1/901 2013/11/27
 30 33  0  0  0  0  0  0  0  0999 V2000
   -7.3639    4.1936   16.0774 N   0  0  0  0  0  0  0  0  0  0  0  0
   -5.0297    3.4866   15.7797 C   0  0  0  0  0  0  0  0  0  0  0  0
   -1.0256    3.7789   14.2970 C   0  0  0  0  0  0  0  0  0  0  0  0
   -3.6236    3.5612   16.3819 C   0  0  0  0  0  0  0  0  0  0  0  0
   -3.0653    4.8589   16.1285 O   0  0  0  0  0  0  0  0  0  0  0  0
   -6.0110    4.2438   16.6762 C   0  0  0  0  0  0  0  0  0  0  0  0
   -1.7723    4.7626   13.4804 N   0  0  0  0  0  0  0  0  0  0  0  0
   -2.7217    4.0515   12.5838 C   0  0  0  0  0  0  0  0  0  0  0  0
   -2.1379    3.9715   11.1702 C   0  0  0  0  0  0  0  0  0  0  0  0
   -2.9569    4.7941   10.2518 N   0  0  0  0  0  0  0  0  0  0  0  0
   -4.3376    4.2343   10.1880 C   0  0  0  0  0  0  0  0  0  0  0  0
   -2.3326    4.7938    8.8985 C   0  0  0  0  0  0  0  0  0  0  0  0
   -5.1902    5.0840    9.2319 C   0  0  0  0  0  0  0  0  0  0  0  0
   -3.1875    5.6413    7.9392 C   0  0  0  0  0  0  0  0  0  0  0  0
   -4.5670    5.0830    7.8780 N   0  0  0  0  0  0  0  0  0  0  0  0
    0.0272    5.4766   18.1988 C   0  0  0  0  0  0  0  0  0  0  0  0
    6.3189    5.1224   19.2753 N   0  0  0  0  0  0  0  0  0  0  0  0
    1.0356    4.9515   17.3558 C   0  0  0  0  0  0  0  0  0  0  0  0
    0.6875    4.4024   16.0929 C   0  0  0  0  0  0  0  0  0  0  0  0
   -0.6704    4.3813   15.6714 C   0  0  0  0  0  0  0  0  0  0  0  0
   -1.6875    4.8965   16.5300 C   0  0  0  0  0  0  0  0  0  0  0  0
   -1.3328    5.4477   17.7917 C   0  0  0  0  0  0  0  0  0  0  0  0
    6.0498    5.8363   20.4651 C   0  0  0  0  0  0  0  0  0  0  0  0
    4.6763    6.1550   20.5633 C   0  0  0  0  0  0  0  0  0  0  0  0
    2.7216    5.6212   18.9954 C   0  0  0  0  0  0  0  0  0  0  0  0
    2.3720    4.9745   17.7788 C   0  0  0  0  0  0  0  0  0  0  0  0
    3.3786    4.3453   16.9958 C   0  0  0  0  0  0  0  0  0  0  0  0
    4.7315    4.3613   17.4304 C   0  0  0  0  0  0  0  0  0  0  0  0
    5.0780    5.0007   18.6617 C   0  0  0  0  0  0  0  0  0  0  0  0
    4.0836    5.6242   19.4374 C   0  0  0  0  0  0  0  0  0  0  0  0
  1  6  1  0  0  0  0
  2  4  1  0  0  0  0
  3  7  1  0  0  0  0
  4  5  1  0  0  0  0
  6  2  1  0  0  0  0
  7  8  1  0  0  0  0
  8  9  1  0  0  0  0
  9 10  1  0  0  0  0
 10 11  1  0  0  0  0
 10 12  1  0  0  0  0
 11 13  1  0  0  0  0
 13 15  1  0  0  0  0
 14 12  1  0  0  0  0
 15 14  1  0  0  0  0
 16 18  2  0  0  0  0
 16 22  1  0  0  0  0
 17 23  1  0  0  0  0
 17 29  1  0  0  0  0
 18 19  1  0  0  0  0
 18 26  1  0  0  0  0
 19 20  2  0  0  0  0
 20  3  1  0  0  0  0
 20 21  1  0  0  0  0
 21  5  1  0  0  0  0
 21 22  2  0  0  0  0
 23 24  2  0  0  0  0
 24 30  1  0  0  0  0
 25 26  2  0  0  0  0
 25 30  1  0  0  0  0
 26 27  1  0  0  0  0
 27 28  2  0  0  0  0
 28 29  1  0  0  0  0
 29 30  2  0  0  0  0
M  END
>  <CHROM.1>
44.90598156,-76.63599448,-148.68122681,-172.57005483,178.85008759,-100.94464078
-113.16817204,-63.02373716,-5.22663484,-124.64878940,81.54346249,-0.80208700
4.75876226,15.10610172,2.37105198,-0.10552229,-1.54058468

>  <Name>
1uts_lig

>  <RI>
0

>  <Rbt.Current_Directory>
/home/itssahil/PROJECTS/Mol_Feturizer/New_Systems/rnas/1uts

>  <Rbt.Executable>
rbdock ($Id: //depot/dev/client3/rdock/2013.1/src/exe/rbdock.cxx#4 $)

>  <Rbt.Library>
libRbt.so (2013.1, Build901 2013/11/27)

>  <Rbt.Parameter_File>
/export/apps/rDock/src/rDock_2013.1_src/data/scripts/dock_solv.prm

>  <Rbt.Receptor>
prm/pocket_docking_5.prm

>  <SCORE>
-36.0334

>  <SCORE.INTER>
-37.1128

>  <SCORE.INTER.CONST>
1

>  <SCORE.INTER.POLAR>
-2.72476

>  <SCORE.INTER.ROT>
10

>  <SCORE.INTER.SOLV>
9.37201

>  <SCORE.INTER.VDW>
-29.05

>  <SCORE.INTER.norm>
-1.23709

>  <SCORE.INTRA>
1.05737

>  <SCORE.INTRA.DIHEDRAL>
-0.732696

>  <SCORE.INTRA.DIHEDRAL.0>
18.0451

>  <SCORE.INTRA.POLAR>
-0.112046

>  <SCORE.INTRA.POLAR.0>
-0.196815

>  <SCORE.INTRA.REPUL>
0

>  <SCORE.INTRA.REPUL.0>
0

>  <SCORE.INTRA.SOLV>
-0.249508

>  <SCORE.INTRA.SOLV.lig_0>
-14.7906

>  <SCORE.INTRA.VDW>
1.92943

>  <SCORE.INTRA.VDW.0>
-0.411701

>  <SCORE.INTRA.norm>
0.0352456

>  <SCORE.RESTR>
0.0220435

>  <SCORE.RESTR.CAVITY>
0.0220435

>  <SCORE.RESTR.norm>
0.000734784

>  <SCORE.SYSTEM>
0

>  <SCORE.SYSTEM.CONST>
0

>  <SCORE.SYSTEM.DIHEDRAL>
0

>  <SCORE.SYSTEM.SOLV>
0

>  <SCORE.SYSTEM.norm>
0

>  <SCORE.heavy>
30

>  <SCORE.norm>
-1.20111

>  <RMSD>
10.081

$$$$
1uts_lig
 OpenBabel11021811413D
libRbt.so/2013.1/901 2013/11/27
 30 33  0  0  0  0  0  0  0  0999 V2000
  -10.3714    3.6776   14.1050 N   0  0  0  0  0  0  0  0  0  0  0  0
   -8.6134    1.9875   14.4053 C   0  0  0  0  0  0  0  0  0  0  0  0
   -4.8716    3.7708   14.2137 C   0  0  0  0  0  0  0  0  0  0  0  0
   -7.7108    2.8538   15.2886 C   0  0  0  0  0  0  0  0  0  0  0  0
   -6.6461    2.0486   15.8157 O   0  0  0  0  0  0  0  0  0  0  0  0
   -9.3477    2.8748   13.3985 C   0  0  0  0  0  0  0  0  0  0  0  0
   -3.5177    3.9683   13.6480 N   0  0  0  0  0  0  0  0  0  0  0  0
   -3.5209    3.6109   12.2047 C   0  0  0  0  0  0  0  0  0  0  0  0
   -2.1410    3.8863   11.6000 C   0  0  0  0  0  0  0  0  0  0  0  0
   -2.1900    5.1375   10.8107 N   0  0  0  0  0  0  0  0  0  0  0  0
   -1.0169    5.1858    9.8912 C   0  0  0  0  0  0  0  0  0  0  0  0
   -2.1745    6.3061   11.7354 C   0  0  0  0  0  0  0  0  0  0  0  0
   -1.0622    6.4861    9.0723 C   0  0  0  0  0  0  0  0  0  0  0  0
   -2.2161    7.6088   10.9164 C   0  0  0  0  0  0  0  0  0  0  0  0
   -1.0455    7.6552    9.9967 N   0  0  0  0  0  0  0  0  0  0  0  0
   -4.6523    3.6486   18.5899 C   0  0  0  0  0  0  0  0  0  0  0  0
    0.1820    7.5690   20.3956 N   0  0  0  0  0  0  0  0  0  0  0  0
   -3.7693    4.4764   17.8560 C   0  0  0  0  0  0  0  0  0  0  0  0
   -3.8455    4.5109   16.4381 C   0  0  0  0  0  0  0  0  0  0  0  0
   -4.8079    3.7190   15.7536 C   0  0  0  0  0  0  0  0  0  0  0  0
   -5.6863    2.8727   16.4947 C   0  0  0  0  0  0  0  0  0  0  0  0
   -5.6076    2.8446   17.9140 C   0  0  0  0  0  0  0  0  0  0  0  0
    1.2349    7.2786   19.4985 C   0  0  0  0  0  0  0  0  0  0  0  0
    0.8056    6.3906   18.4862 C   0  0  0  0  0  0  0  0  0  0  0  0
   -1.4855    5.3263   18.0596 C   0  0  0  0  0  0  0  0  0  0  0  0
   -2.8221    5.2532   18.5378 C   0  0  0  0  0  0  0  0  0  0  0  0
   -3.1981    5.9746   19.7042 C   0  0  0  0  0  0  0  0  0  0  0  0
   -2.2393    6.7690   20.3891 C   0  0  0  0  0  0  0  0  0  0  0  0
   -0.8989    6.8516   19.8976 C   0  0  0  0  0  0  0  0  0  0  0  0
   -0.5250    6.1381   18.7442 C   0  0  0  0  0  0  0  0  0  0  0  0
  1  6  1  0  0  0  0
  2  4  1  0  0  0  0
  3  7  1  0  0  0  0
  4  5  1  0  0  0  0
  6  2  1  0  0  0  0
  7  8  1  0  0  0  0
  8  9  1  0  0  0  0
  9 10  1  0  0  0  0
 10 11  1  0  0  0  0
 10 12  1  0  0  0  0
 11 13  1  0  0  0  0
 13 15  1  0  0  0  0
 14 12  1  0  0  0  0
 15 14  1  0  0  0  0
 16 18  2  0  0  0  0
 16 22  1  0  0  0  0
 17 23  1  0  0  0  0
 17 29  1  0  0  0  0
 18 19  1  0  0  0  0
 18 26  1  0  0  0  0
 19 20  2  0  0  0  0
 20  3  1  0  0  0  0
 20 21  1  0  0  0  0
 21  5  1  0  0  0  0
 21 22  2  0  0  0  0
 23 24  2  0  0  0  0
 24 30  1  0  0  0  0
 25 26  2  0  0  0  0
 25 30  1  0  0  0  0
 26 27  1  0  0  0  0
 27 28  2  0  0  0  0
 28 29  1  0  0  0  0
 29 30  2  0  0  0  0
M  END
>  <CHROM.1>
-174.10338330,-156.01668862,162.98758599,172.09037144,-71.25822673,176.95652740
-103.15490616,-162.33388274,136.27528162,33.69412115,-72.53066366,-3.53293498
4.88000633,15.28924644,2.15595768,-0.48411254,-1.55893546

>  <Name>
1uts_lig

>  <RI>
0

>  <Rbt.Current_Directory>
/home/itssahil/PROJECTS/Mol_Feturizer/New_Systems/rnas/1uts

>  <Rbt.Executable>
rbdock ($Id: //depot/dev/client3/rdock/2013.1/src/exe/rbdock.cxx#4 $)

>  <Rbt.Library>
libRbt.so (2013.1, Build901 2013/11/27)

>  <Rbt.Parameter_File>
/export/apps/rDock/src/rDock_2013.1_src/data/scripts/dock_solv.prm

>  <Rbt.Receptor>
prm/pocket_docking_7.prm

>  <SCORE>
-38.8413

>  <SCORE.INTER>
-38.6037

>  <SCORE.INTER.CONST>
1

>  <SCORE.INTER.POLAR>
-2.23586

>  <SCORE.INTER.ROT>
10

>  <SCORE.INTER.SOLV>
11.3927

>  <SCORE.INTER.VDW>
-32.3471

>  <SCORE.INTER.norm>
-1.28679

>  <SCORE.INTRA>
-0.246421

>  <SCORE.INTRA.DIHEDRAL>
-2.02935

>  <SCORE.INTRA.DIHEDRAL.0>
18.0451

>  <SCORE.INTRA.POLAR>
0.196815

>  <SCORE.INTRA.POLAR.0>
-0.196815

>  <SCORE.INTRA.REPUL>
0

>  <SCORE.INTRA.REPUL.0>
0

>  <SCORE.INTRA.SOLV>
-0.419877

>  <SCORE.INTRA.SOLV.lig_0>
-14.7906

>  <SCORE.INTRA.VDW>
0.309019

>  <SCORE.INTRA.VDW.0>
-0.411701

>  <SCORE.INTRA.norm>
-0.00821403

>  <SCORE.RESTR>
0.00875951

>  <SCORE.RESTR.CAVITY>
0.00875951

>  <SCORE.RESTR.norm>
0.000291984

>  <SCORE.SYSTEM>
0

>  <SCORE.SYSTEM.CONST>
0

>  <SCORE.SYSTEM.DIHEDRAL>
0

>  <SCORE.SYSTEM.SOLV>
0

>  <SCORE.SYSTEM.norm>
0

>  <SCORE.heavy>
30

>  <SCORE.norm>
-1.29471

>  <RMSD>
10.090

$$$$
1uts_lig
 OpenBabel11021811413D
libRbt.so/2013.1/901 2013/11/27
 30 33  0  0  0  0  0  0  0  0999 V2000
   -1.9834    7.6644   11.5341 N   0  0  0  0  0  0  0  0  0  0  0  0
   -1.7398    5.2337   11.2706 C   0  0  0  0  0  0  0  0  0  0  0  0
   -5.8170    3.6415   13.3168 C   0  0  0  0  0  0  0  0  0  0  0  0
   -3.1865    4.7400   11.1773 C   0  0  0  0  0  0  0  0  0  0  0  0
   -3.2929    3.4554   11.8085 O   0  0  0  0  0  0  0  0  0  0  0  0
   -1.6178    6.5932   10.5800 C   0  0  0  0  0  0  0  0  0  0  0  0
   -6.7214    2.7220   14.0440 N   0  0  0  0  0  0  0  0  0  0  0  0
   -8.1081    2.8718   13.5286 C   0  0  0  0  0  0  0  0  0  0  0  0
   -9.0303    1.8659   14.2237 C   0  0  0  0  0  0  0  0  0  0  0  0
   -9.3871    0.7873   13.2749 N   0  0  0  0  0  0  0  0  0  0  0  0
  -10.5719    0.0460   13.7950 C   0  0  0  0  0  0  0  0  0  0  0  0
   -8.2265   -0.1337   13.1145 C   0  0  0  0  0  0  0  0  0  0  0  0
  -10.9431   -1.0777   12.8138 C   0  0  0  0  0  0  0  0  0  0  0  0
   -8.5983   -1.2615   12.1350 C   0  0  0  0  0  0  0  0  0  0  0  0
   -9.7831   -1.9999   12.6540 N   0  0  0  0  0  0  0  0  0  0  0  0
   -1.9124    3.7900   15.3033 C   0  0  0  0  0  0  0  0  0  0  0  0
   -3.0068    4.6559   21.6347 N   0  0  0  0  0  0  0  0  0  0  0  0
   -3.1017    3.9008   16.0626 C   0  0  0  0  0  0  0  0  0  0  0  0
   -4.3637    3.8524   15.4125 C   0  0  0  0  0  0  0  0  0  0  0  0
   -4.4363    3.6898   14.0018 C   0  0  0  0  0  0  0  0  0  0  0  0
   -3.2355    3.5946   13.2362 C   0  0  0  0  0  0  0  0  0  0  0  0
   -1.9751    3.6406   13.8927 C   0  0  0  0  0  0  0  0  0  0  0  0
   -4.1190    5.5247   21.7124 C   0  0  0  0  0  0  0  0  0  0  0  0
   -4.6539    5.7768   20.4287 C   0  0  0  0  0  0  0  0  0  0  0  0
   -3.9500    4.9037   18.1252 C   0  0  0  0  0  0  0  0  0  0  0  0
   -3.0221    4.0624   17.4530 C   0  0  0  0  0  0  0  0  0  0  0  0
   -2.0182    3.3800   18.1937 C   0  0  0  0  0  0  0  0  0  0  0  0
   -1.9444    3.5374   19.6042 C   0  0  0  0  0  0  0  0  0  0  0  0
   -2.8879    4.3735   20.2792 C   0  0  0  0  0  0  0  0  0  0  0  0
   -3.8815    5.0499   19.5479 C   0  0  0  0  0  0  0  0  0  0  0  0
  1  6  1  0  0  0  0
  2  4  1  0  0  0  0
  3  7  1  0  0  0  0
  4  5  1  0  0  0  0
  6  2  1  0  0  0  0
  7  8  1  0  0  0  0
  8  9  1  0  0  0  0
  9 10  1  0  0  0  0
 10 11  1  0  0  0  0
 10 12  1  0  0  0  0
 11 13  1  0  0  0  0
 13 15  1  0  0  0  0
 14 12  1  0  0  0  0
 15 14  1  0  0  0  0
 16 18  2  0  0  0  0
 16 22  1  0  0  0  0
 17 23  1  0  0  0  0
 17 29  1  0  0  0  0
 18 19  1  0  0  0  0
 18 26  1  0  0  0  0
 19 20  2  0  0  0  0
 20  3  1  0  0  0  0
 20 21  1  0  0  0  0
 21  5  1  0  0  0  0
 21 22  2  0  0  0  0
 23 24  2  0  0  0  0
 24 30  1  0  0  0  0
 25 26  2  0  0  0  0
 25 30  1  0  0  0  0
 26 27  1  0  0  0  0
 27 28  2  0  0  0  0
 28 29  1  0  0  0  0
 29 30  2  0  0  0  0
M  END
>  <CHROM.1>
82.62324787,179.13795615,169.74598093,73.92913496,85.35229299,176.80924793
-107.10765471,-163.47890772,143.03026860,-47.15274777,94.43522389,-5.00458342
3.25112897,14.99348246,-0.60748206,-0.64702431,-1.58660492

>  <Name>
1uts_lig

>  <RI>
0

>  <Rbt.Current_Directory>
/home/itssahil/PROJECTS/Mol_Feturizer/New_Systems/rnas/1uts

>  <Rbt.Executable>
rbdock ($Id: //depot/dev/client3/rdock/2013.1/src/exe/rbdock.cxx#4 $)

>  <Rbt.Library>
libRbt.so (2013.1, Build901 2013/11/27)

>  <Rbt.Parameter_File>
/export/apps/rDock/src/rDock_2013.1_src/data/scripts/dock_solv.prm

>  <Rbt.Receptor>
prm/pocket_docking_8.prm

>  <SCORE>
-37.52

>  <SCORE.INTER>
-38.4487

>  <SCORE.INTER.CONST>
1

>  <SCORE.INTER.POLAR>
-3.40176

>  <SCORE.INTER.ROT>
10

>  <SCORE.INTER.SOLV>
9.89413

>  <SCORE.INTER.VDW>
-27.858

>  <SCORE.INTER.norm>
-1.28162

>  <SCORE.INTRA>
0.928731

>  <SCORE.INTRA.DIHEDRAL>
-0.875005

>  <SCORE.INTRA.DIHEDRAL.0>
18.0451

>  <SCORE.INTRA.POLAR>
0.196815

>  <SCORE.INTRA.POLAR.0>
-0.196815

>  <SCORE.INTRA.REPUL>
0

>  <SCORE.INTRA.REPUL.0>
0

>  <SCORE.INTRA.SOLV>
-0.473325

>  <SCORE.INTRA.SOLV.lig_0>
-14.7906

>  <SCORE.INTRA.VDW>
0.933725

>  <SCORE.INTRA.VDW.0>
-0.411701

>  <SCORE.INTRA.norm>
0.0309577

>  <SCORE.RESTR>
0

>  <SCORE.RESTR.CAVITY>
0

>  <SCORE.RESTR.norm>
0

>  <SCORE.SYSTEM>
0

>  <SCORE.SYSTEM.CONST>
0

>  <SCORE.SYSTEM.DIHEDRAL>
0

>  <SCORE.SYSTEM.SOLV>
0

>  <SCORE.SYSTEM.norm>
0

>  <SCORE.heavy>
30

>  <SCORE.norm>
-1.25067

>  <RMSD>
10.100

$$$$
1uts_lig
 OpenBabel11021811413D
libRbt.so/2013.1/901 2013/11/27
 30 33  0  0  0  0  0  0  0  0999 V2000
   -6.3701    4.1101   14.7397 N   0  0  0  0  0  0  0  0  0  0  0  0
   -5.6129    1.8801   15.4404 C   0  0  0  0  0  0  0  0  0  0  0  0
   -2.0784    3.8881   13.2230 C   0  0  0  0  0  0  0  0  0  0  0  0
   -4.3303    2.3445   16.1366 C   0  0  0  0  0  0  0  0  0  0  0  0
   -3.8771    3.5658   15.5342 O   0  0  0  0  0  0  0  0  0  0  0  0
   -6.6961    2.9487   15.5979 C   0  0  0  0  0  0  0  0  0  0  0  0
   -2.1438    5.2650   12.6826 N   0  0  0  0  0  0  0  0  0  0  0  0
   -2.5966    5.2263   11.2668 C   0  0  0  0  0  0  0  0  0  0  0  0
   -1.3824    5.2556   10.3338 C   0  0  0  0  0  0  0  0  0  0  0  0
   -1.6818    6.1095    9.1624 N   0  0  0  0  0  0  0  0  0  0  0  0
   -0.5117    6.1050    8.2379 C   0  0  0  0  0  0  0  0  0  0  0  0
   -1.9749    7.4960    9.6235 C   0  0  0  0  0  0  0  0  0  0  0  0
   -0.8175    6.9940    7.0217 C   0  0  0  0  0  0  0  0  0  0  0  0
   -2.2777    8.3881    8.4061 C   0  0  0  0  0  0  0  0  0  0  0  0
   -1.1095    8.3811    7.4822 N   0  0  0  0  0  0  0  0  0  0  0  0
   -0.5889    3.9389   17.3453 C   0  0  0  0  0  0  0  0  0  0  0  0
    5.8291    4.8074   17.0659 N   0  0  0  0  0  0  0  0  0  0  0  0
    0.3109    4.0791   16.2618 C   0  0  0  0  0  0  0  0  0  0  0  0
   -0.1784    4.0613   14.9284 C   0  0  0  0  0  0  0  0  0  0  0  0
   -1.5695    3.9062   14.6785 C   0  0  0  0  0  0  0  0  0  0  0  0
   -2.4731    3.7486   15.7721 C   0  0  0  0  0  0  0  0  0  0  0  0
   -1.9780    3.7703   17.1047 C   0  0  0  0  0  0  0  0  0  0  0  0
    6.1390    5.2513   15.7603 C   0  0  0  0  0  0  0  0  0  0  0  0
    4.9849    5.2668   14.9446 C   0  0  0  0  0  0  0  0  0  0  0  0
    2.5520    4.6697   15.4819 C   0  0  0  0  0  0  0  0  0  0  0  0
    1.6814    4.2302   16.5159 C   0  0  0  0  0  0  0  0  0  0  0  0
    2.2016    3.9510   17.8096 C   0  0  0  0  0  0  0  0  0  0  0  0
    3.5895    4.1134   18.0684 C   0  0  0  0  0  0  0  0  0  0  0  0
    4.4605    4.5691   17.0298 C   0  0  0  0  0  0  0  0  0  0  0  0
    3.9477    4.8452   15.7492 C   0  0  0  0  0  0  0  0  0  0  0  0
  1  6  1  0  0  0  0
  2  4  1  0  0  0  0
  3  7  1  0  0  0  0
  4  5  1  0  0  0  0
  6  2  1  0  0  0  0
  7  8  1  0  0  0  0
  8  9  1  0  0  0  0
  9 10  1  0  0  0  0
 10 11  1  0  0  0  0
 10 12  1  0  0  0  0
 11 13  1  0  0  0  0
 13 15  1  0  0  0  0
 14 12  1  0  0  0  0
 15 14  1  0  0  0  0
 16 18  2  0  0  0  0
 16 22  1  0  0  0  0
 17 23  1  0  0  0  0
 17 29  1  0  0  0  0
 18 19  1  0  0  0  0
 18 26  1  0  0  0  0
 19 20  2  0  0  0  0
 20  3  1  0  0  0  0
 20 21  1  0  0  0  0
 21  5  1  0  0  0  0
 21 22  2  0  0  0  0
 23 24  2  0  0  0  0
 24 30  1  0  0  0  0
 25 26  2  0  0  0  0
 25 30  1  0  0  0  0
 26 27  1  0  0  0  0
 27 28  2  0  0  0  0
 28 29  1  0  0  0  0
 29 30  2  0  0  0  0
M  END
>  <CHROM.1>
-178.71068614,-60.44204352,178.30349212,-157.56829038,72.31316681,-95.90745995
-140.78889437,-178.43309604,-165.79254832,-78.37451770,122.92223690,-0.63673047
4.81404511,13.84369054,2.27719792,-0.19023111,-1.15418551

>  <Name>
1uts_lig

>  <RI>
0

>  <Rbt.Current_Directory>
/home/itssahil/PROJECTS/Mol_Feturizer/New_Systems/rnas/1uts

>  <Rbt.Executable>
rbdock ($Id: //depot/dev/client3/rdock/2013.1/src/exe/rbdock.cxx#4 $)

>  <Rbt.Library>
libRbt.so (2013.1, Build901 2013/11/27)

>  <Rbt.Parameter_File>
/export/apps/rDock/src/rDock_2013.1_src/data/scripts/dock_solv.prm

>  <Rbt.Receptor>
prm/pocket_docking_8.prm

>  <SCORE>
-45.3091

>  <SCORE.INTER>
-44.9238

>  <SCORE.INTER.CONST>
1

>  <SCORE.INTER.POLAR>
-3.72626

>  <SCORE.INTER.ROT>
10

>  <SCORE.INTER.SOLV>
10.0456

>  <SCORE.INTER.VDW>
-31.1435

>  <SCORE.INTER.norm>
-1.49746

>  <SCORE.INTRA>
-0.385326

>  <SCORE.INTRA.DIHEDRAL>
-4.51507

>  <SCORE.INTRA.DIHEDRAL.0>
18.0451

>  <SCORE.INTRA.POLAR>
-0.391717

>  <SCORE.INTRA.POLAR.0>
-0.196815

>  <SCORE.INTRA.REPUL>
0

>  <SCORE.INTRA.REPUL.0>
0

>  <SCORE.INTRA.SOLV>
-0.0119293

>  <SCORE.INTRA.SOLV.lig_0>
-14.7906

>  <SCORE.INTRA.VDW>
3.21001

>  <SCORE.INTRA.VDW.0>
-0.411701

>  <SCORE.INTRA.norm>
-0.0128442

>  <SCORE.RESTR>
0

>  <SCORE.RESTR.CAVITY>
0

>  <SCORE.RESTR.norm>
0

>  <SCORE.SYSTEM>
0

>  <SCORE.SYSTEM.CONST>
0

>  <SCORE.SYSTEM.DIHEDRAL>
0

>  <SCORE.SYSTEM.SOLV>
0

>  <SCORE.SYSTEM.norm>
0

>  <SCORE.heavy>
30

>  <SCORE.norm>
-1.5103

>  <RMSD>
10.101

$$$$
1uts_lig
 OpenBabel11021811413D
libRbt.so/2013.1/901 2013/11/27
 30 33  0  0  0  0  0  0  0  0999 V2000
   -9.1619    3.1679   12.9284 N   0  0  0  0  0  0  0  0  0  0  0  0
   -7.2235    2.4723   14.2685 C   0  0  0  0  0  0  0  0  0  0  0  0
   -2.0742    3.6775   14.0636 C   0  0  0  0  0  0  0  0  0  0  0  0
   -6.3131    3.4203   13.4824 C   0  0  0  0  0  0  0  0  0  0  0  0
   -4.9415    3.0833   13.7369 O   0  0  0  0  0  0  0  0  0  0  0  0
   -8.3675    1.9993   13.3698 C   0  0  0  0  0  0  0  0  0  0  0  0
   -1.9129    4.8368   13.1568 N   0  0  0  0  0  0  0  0  0  0  0  0
   -1.8495    4.3656   11.7479 C   0  0  0  0  0  0  0  0  0  0  0  0
   -1.6588    5.5613   10.8101 C   0  0  0  0  0  0  0  0  0  0  0  0
   -1.1513    5.0863    9.5033 N   0  0  0  0  0  0  0  0  0  0  0  0
   -0.7619    6.2602    8.6702 C   0  0  0  0  0  0  0  0  0  0  0  0
   -2.2117    4.2926    8.8202 C   0  0  0  0  0  0  0  0  0  0  0  0
   -0.2378    5.7709    7.3104 C   0  0  0  0  0  0  0  0  0  0  0  0
   -1.6893    3.8052    7.4568 C   0  0  0  0  0  0  0  0  0  0  0  0
   -1.2984    4.9781    6.6262 N   0  0  0  0  0  0  0  0  0  0  0  0
   -5.0014    4.5805   17.1990 C   0  0  0  0  0  0  0  0  0  0  0  0
   -1.7305    7.1565   22.1743 N   0  0  0  0  0  0  0  0  0  0  0  0
   -3.6299    4.8652   17.4025 C   0  0  0  0  0  0  0  0  0  0  0  0
   -2.6866    4.5697   16.3826 C   0  0  0  0  0  0  0  0  0  0  0  0
   -3.1158    3.9916   15.1564 C   0  0  0  0  0  0  0  0  0  0  0  0
   -4.4970    3.6902   14.9597 C   0  0  0  0  0  0  0  0  0  0  0  0
   -5.4372    3.9911   15.9830 C   0  0  0  0  0  0  0  0  0  0  0  0
   -0.3514    7.0069   21.9033 C   0  0  0  0  0  0  0  0  0  0  0  0
   -0.1473    6.3725   20.6569 C   0  0  0  0  0  0  0  0  0  0  0  0
   -1.8281    5.5376   18.9128 C   0  0  0  0  0  0  0  0  0  0  0  0
   -3.2141    5.4339   18.6146 C   0  0  0  0  0  0  0  0  0  0  0  0
   -4.1770    5.9141   19.5443 C   0  0  0  0  0  0  0  0  0  0  0  0
   -3.7539    6.4988   20.7686 C   0  0  0  0  0  0  0  0  0  0  0  0
   -2.3585    6.6142   21.0595 C   0  0  0  0  0  0  0  0  0  0  0  0
   -1.4044    6.1392   20.1412 C   0  0  0  0  0  0  0  0  0  0  0  0
  1  6  1  0  0  0  0
  2  4  1  0  0  0  0
  3  7  1  0  0  0  0
  4  5  1  0  0  0  0
  6  2  1  0  0  0  0
  7  8  1  0  0  0  0
  8  9  1  0  0  0  0
  9 10  1  0  0  0  0
 10 11  1  0  0  0  0
 10 12  1  0  0  0  0
 11 13  1  0  0  0  0
 13 15  1  0  0  0  0
 14 12  1  0  0  0  0
 15 14  1  0  0  0  0
 16 18  2  0  0  0  0
 16 22  1  0  0  0  0
 17 23  1  0  0  0  0
 17 29  1  0  0  0  0
 18 19  1  0  0  0  0
 18 26  1  0  0  0  0
 19 20  2  0  0  0  0
 20  3  1  0  0  0  0
 20 21  1  0  0  0  0
 21  5  1  0  0  0  0
 21 22  2  0  0  0  0
 23 24  2  0  0  0  0
 24 30  1  0  0  0  0
 25 26  2  0  0  0  0
 25 30  1  0  0  0  0
 26 27  1  0  0  0  0
 27 28  2  0  0  0  0
 28 29  1  0  0  0  0
 29 30  2  0  0  0  0
M  END
>  <CHROM.1>
66.47316023,-135.61397315,-137.19029591,-83.06464544,-60.78715131,-179.04851268
161.23785019,-171.06885398,170.47370224,-90.43977390,-153.51168728,-3.17771399
4.80669145,14.66271217,1.55177748,-0.41527188,-1.70985873

>  <Name>
1uts_lig

>  <RI>
0

>  <Rbt.Current_Directory>
/home/itssahil/PROJECTS/Mol_Feturizer/New_Systems/rnas/1uts

>  <Rbt.Executable>
rbdock ($Id: //depot/dev/client3/rdock/2013.1/src/exe/rbdock.cxx#4 $)

>  <Rbt.Library>
libRbt.so (2013.1, Build901 2013/11/27)

>  <Rbt.Parameter_File>
/export/apps/rDock/src/rDock_2013.1_src/data/scripts/dock_solv.prm

>  <Rbt.Receptor>
prm/pocket_docking_7.prm

>  <SCORE>
-43.4427

>  <SCORE.INTER>
-47.3052

>  <SCORE.INTER.CONST>
1

>  <SCORE.INTER.POLAR>
-4.06653

>  <SCORE.INTER.ROT>
10

>  <SCORE.INTER.SOLV>
10.5229

>  <SCORE.INTER.VDW>
-31.756

>  <SCORE.INTER.norm>
-1.57684

>  <SCORE.INTRA>
3.86251

>  <SCORE.INTRA.DIHEDRAL>
-4.86624

>  <SCORE.INTRA.DIHEDRAL.0>
18.0451

>  <SCORE.INTRA.POLAR>
0.196815

>  <SCORE.INTRA.POLAR.0>
-0.196815

>  <SCORE.INTRA.REPUL>
0

>  <SCORE.INTRA.REPUL.0>
0

>  <SCORE.INTRA.SOLV>
-0.438898

>  <SCORE.INTRA.SOLV.lig_0>
-14.7906

>  <SCORE.INTRA.VDW>
5.84591

>  <SCORE.INTRA.VDW.0>
-0.411701

>  <SCORE.INTRA.norm>
0.12875

>  <SCORE.RESTR>
0

>  <SCORE.RESTR.CAVITY>
0

>  <SCORE.RESTR.norm>
0

>  <SCORE.SYSTEM>
0

>  <SCORE.SYSTEM.CONST>
0

>  <SCORE.SYSTEM.DIHEDRAL>
0

>  <SCORE.SYSTEM.SOLV>
0

>  <SCORE.SYSTEM.norm>
0

>  <SCORE.heavy>
30

>  <SCORE.norm>
-1.44809

>  <RMSD>
10.115

$$$$
1uts_lig
 OpenBabel11021811413D
libRbt.so/2013.1/901 2013/11/27
 30 33  0  0  0  0  0  0  0  0999 V2000
    4.5489   -9.0900   19.7379 N   0  0  0  0  0  0  0  0  0  0  0  0
    6.2914   -7.3625   19.6103 C   0  0  0  0  0  0  0  0  0  0  0  0
    3.0535   -4.2114   17.8571 C   0  0  0  0  0  0  0  0  0  0  0  0
    5.5521   -6.0858   20.0211 C   0  0  0  0  0  0  0  0  0  0  0  0
    4.1582   -6.2209   19.7072 O   0  0  0  0  0  0  0  0  0  0  0  0
    5.7501   -8.5476   20.4119 C   0  0  0  0  0  0  0  0  0  0  0  0
    1.8111   -4.6942   17.2126 N   0  0  0  0  0  0  0  0  0  0  0  0
    0.9392   -3.5376   16.8763 C   0  0  0  0  0  0  0  0  0  0  0  0
   -0.3234   -4.0309   16.1636 C   0  0  0  0  0  0  0  0  0  0  0  0
   -0.9186   -5.1472   16.9321 N   0  0  0  0  0  0  0  0  0  0  0  0
   -2.0713   -5.7093   16.1711 C   0  0  0  0  0  0  0  0  0  0  0  0
   -1.3676   -4.6473   18.2623 C   0  0  0  0  0  0  0  0  0  0  0  0
   -2.6945   -6.8667   16.9681 C   0  0  0  0  0  0  0  0  0  0  0  0
   -1.9952   -5.8046   19.0598 C   0  0  0  0  0  0  0  0  0  0  0  0
   -3.1449   -6.3671   18.2981 N   0  0  0  0  0  0  0  0  0  0  0  0
    2.5038   -3.9188   22.1961 C   0  0  0  0  0  0  0  0  0  0  0  0
   -0.9677    1.2577   23.6900 N   0  0  0  0  0  0  0  0  0  0  0  0
    1.9723   -2.9225   21.3427 C   0  0  0  0  0  0  0  0  0  0  0  0
    2.1544   -3.0232   19.9377 C   0  0  0  0  0  0  0  0  0  0  0  0
    2.8663   -4.1232   19.3852 C   0  0  0  0  0  0  0  0  0  0  0  0
    3.4155   -5.1181   20.2488 C   0  0  0  0  0  0  0  0  0  0  0  0
    3.2273   -5.0137   21.6543 C   0  0  0  0  0  0  0  0  0  0  0  0
   -1.9780    0.4570   24.2697 C   0  0  0  0  0  0  0  0  0  0  0  0
   -1.7746   -0.9090   23.9692 C   0  0  0  0  0  0  0  0  0  0  0  0
    0.0771   -2.0666   22.6293 C   0  0  0  0  0  0  0  0  0  0  0  0
    1.2728   -1.8401   21.8948 C   0  0  0  0  0  0  0  0  0  0  0  0
    1.7615   -0.5153   21.7270 C   0  0  0  0  0  0  0  0  0  0  0  0
    1.0565    0.5801   22.2949 C   0  0  0  0  0  0  0  0  0  0  0  0
   -0.1386    0.3478   23.0452 C   0  0  0  0  0  0  0  0  0  0  0  0
   -0.6239   -0.9622   23.2117 C   0  0  0  0  0  0  0  0  0  0  0  0
  1  6  1  0  0  0  0
  2  4  1  0  0  0  0
  3  7  1  0  0  0  0
  4  5  1  0  0  0  0
  6  2  1  0  0  0  0
  7  8  1  0  0  0  0
  8  9  1  0  0  0  0
  9 10  1  0  0  0  0
 10 11  1  0  0  0  0
 10 12  1  0  0  0  0
 11 13  1  0  0  0  0
 13 15  1  0  0  0  0
 14 12  1  0  0  0  0
 15 14  1  0  0  0  0
 16 18  2  0  0  0  0
 16 22  1  0  0  0  0
 17 23  1  0  0  0  0
 17 29  1  0  0  0  0
 18 19  1  0  0  0  0
 18 26  1  0  0  0  0
 19 20  2  0  0  0  0
 20  3  1  0  0  0  0
 20 21  1  0  0  0  0
 21  5  1  0  0  0  0
 21 22  2  0  0  0  0
 23 24  2  0  0  0  0
 24 30  1  0  0  0  0
 25 26  2  0  0  0  0
 25 30  1  0  0  0  0
 26 27  1  0  0  0  0
 27 28  2  0  0  0  0
 28 29  1  0  0  0  0
 29 30  2  0  0  0  0
M  END
>  <CHROM.1>
-36.49926204,-62.32701263,89.42724699,172.03438333,85.14060589,177.95133518
49.11854019,-174.68134998,-61.91546354,-78.03829416,109.09012713,1.15133799
-4.01190828,20.04879825,-1.10405514,-0.38280065,0.76658419

>  <Name>
1uts_lig

>  <RI>
0

>  <Rbt.Current_Directory>
/home/itssahil/PROJECTS/Mol_Feturizer/New_Systems/rnas/1uts

>  <Rbt.Executable>
rbdock ($Id: //depot/dev/client3/rdock/2013.1/src/exe/rbdock.cxx#4 $)

>  <Rbt.Library>
libRbt.so (2013.1, Build901 2013/11/27)

>  <Rbt.Parameter_File>
/export/apps/rDock/src/rDock_2013.1_src/data/scripts/dock_solv.prm

>  <Rbt.Receptor>
prm/pocket_docking_8.prm

>  <SCORE>
-19.5879

>  <SCORE.INTER>
-17.8202

>  <SCORE.INTER.CONST>
1

>  <SCORE.INTER.POLAR>
-2.92686

>  <SCORE.INTER.ROT>
10

>  <SCORE.INTER.SOLV>
4.11747

>  <SCORE.INTER.VDW>
-13.7631

>  <SCORE.INTER.norm>
-0.594007

>  <SCORE.INTRA>
-2.41242

>  <SCORE.INTRA.DIHEDRAL>
-3.48949

>  <SCORE.INTRA.DIHEDRAL.0>
18.0451

>  <SCORE.INTRA.POLAR>
-0.382632

>  <SCORE.INTRA.POLAR.0>
-0.196815

>  <SCORE.INTRA.REPUL>
0

>  <SCORE.INTRA.REPUL.0>
0

>  <SCORE.INTRA.SOLV>
0.182861

>  <SCORE.INTRA.SOLV.lig_0>
-14.7906

>  <SCORE.INTRA.VDW>
0.541848

>  <SCORE.INTRA.VDW.0>
-0.411701

>  <SCORE.INTRA.norm>
-0.0804139

>  <SCORE.RESTR>
0.644727

>  <SCORE.RESTR.CAVITY>
0.644727

>  <SCORE.RESTR.norm>
0.0214909

>  <SCORE.SYSTEM>
0

>  <SCORE.SYSTEM.CONST>
0

>  <SCORE.SYSTEM.DIHEDRAL>
0

>  <SCORE.SYSTEM.SOLV>
0

>  <SCORE.SYSTEM.norm>
0

>  <SCORE.heavy>
30

>  <SCORE.norm>
-0.65293

>  <RMSD>
10.136

$$$$
1uts_lig
 OpenBabel11021811413D
libRbt.so/2013.1/901 2013/11/27
 30 33  0  0  0  0  0  0  0  0999 V2000
   -1.1716    7.5296   10.7653 N   0  0  0  0  0  0  0  0  0  0  0  0
   -2.5853    5.8417   11.8559 C   0  0  0  0  0  0  0  0  0  0  0  0
   -3.4499    2.9512   15.9952 C   0  0  0  0  0  0  0  0  0  0  0  0
   -1.6758    4.9205   12.6741 C   0  0  0  0  0  0  0  0  0  0  0  0
   -2.2425    4.7279   13.9785 O   0  0  0  0  0  0  0  0  0  0  0  0
   -1.8756    6.2434   10.5617 C   0  0  0  0  0  0  0  0  0  0  0  0
   -4.0676    4.2888   15.8486 N   0  0  0  0  0  0  0  0  0  0  0  0
   -5.5445    4.1755   15.9792 C   0  0  0  0  0  0  0  0  0  0  0  0
   -6.1203    3.4676   14.7492 C   0  0  0  0  0  0  0  0  0  0  0  0
   -7.5761    3.7233   14.6702 N   0  0  0  0  0  0  0  0  0  0  0  0
   -8.2376    3.1851   15.8935 C   0  0  0  0  0  0  0  0  0  0  0  0
   -8.1273    3.0688   13.4501 C   0  0  0  0  0  0  0  0  0  0  0  0
   -9.7505    3.4454   15.8132 C   0  0  0  0  0  0  0  0  0  0  0  0
   -9.6429    3.3256   13.3706 C   0  0  0  0  0  0  0  0  0  0  0  0
  -10.3026    2.7899   14.5938 N   0  0  0  0  0  0  0  0  0  0  0  0
    0.8866    3.1656   15.3925 C   0  0  0  0  0  0  0  0  0  0  0  0
    3.9793   -0.7642   19.3800 N   0  0  0  0  0  0  0  0  0  0  0  0
    0.3474    2.3122   16.3845 C   0  0  0  0  0  0  0  0  0  0  0  0
   -1.0587    2.2478   16.5749 C   0  0  0  0  0  0  0  0  0  0  0  0
   -1.9267    3.0357   15.7701 C   0  0  0  0  0  0  0  0  0  0  0  0
   -1.3800    3.9078   14.7813 C   0  0  0  0  0  0  0  0  0  0  0  0
    0.0282    3.9657   14.5932 C   0  0  0  0  0  0  0  0  0  0  0  0
    4.9336   -0.9553   18.3550 C   0  0  0  0  0  0  0  0  0  0  0  0
    4.5155   -0.3385   17.1540 C   0  0  0  0  0  0  0  0  0  0  0  0
    2.4119    1.0231   16.6201 C   0  0  0  0  0  0  0  0  0  0  0  0
    1.2095    1.5395   17.1752 C   0  0  0  0  0  0  0  0  0  0  0  0
    0.8865    1.2769   18.5350 C   0  0  0  0  0  0  0  0  0  0  0  0
    1.7658    0.5012   19.3379 C   0  0  0  0  0  0  0  0  0  0  0  0
    2.9814   -0.0052   18.7805 C   0  0  0  0  0  0  0  0  0  0  0  0
    3.3024    0.2531   17.4353 C   0  0  0  0  0  0  0  0  0  0  0  0
  1  6  1  0  0  0  0
  2  4  1  0  0  0  0
  3  7  1  0  0  0  0
  4  5  1  0  0  0  0
  6  2  1  0  0  0  0
  7  8  1  0  0  0  0
  8  9  1  0  0  0  0
  9 10  1  0  0  0  0
 10 11  1  0  0  0  0
 10 12  1  0  0  0  0
 11 13  1  0  0  0  0
 13 15  1  0  0  0  0
 14 12  1  0  0  0  0
 15 14  1  0  0  0  0
 16 18  2  0  0  0  0
 16 22  1  0  0  0  0
 17 23  1  0  0  0  0
 17 29  1  0  0  0  0
 18 19  1  0  0  0  0
 18 26  1  0  0  0  0
 19 20  2  0  0  0  0
 20  3  1  0  0  0  0
 20 21  1  0  0  0  0
 21  5  1  0  0  0  0
 21 22  2  0  0  0  0
 23 24  2  0  0  0  0
 24 30  1  0  0  0  0
 25 26  2  0  0  0  0
 25 30  1  0  0  0  0
 26 27  1  0  0  0  0
 27 28  2  0  0  0  0
 28 29  1  0  0  0  0
 29 30  2  0  0  0  0
M  END
>  <CHROM.1>
11.69396857,170.34079315,176.27605245,-177.79954156,-93.58609157,-70.54862877
-162.52029769,-60.73769683,-34.10513056,141.62581601,-148.15177928,-2.18205977
2.93426334,15.44818836,-2.69125589,-0.01738056,2.28708490

>  <Name>
1uts_lig

>  <RI>
0

>  <Rbt.Current_Directory>
/home/itssahil/PROJECTS/Mol_Feturizer/New_Systems/rnas/1uts

>  <Rbt.Executable>
rbdock ($Id: //depot/dev/client3/rdock/2013.1/src/exe/rbdock.cxx#4 $)

>  <Rbt.Library>
libRbt.so (2013.1, Build901 2013/11/27)

>  <Rbt.Parameter_File>
/export/apps/rDock/src/rDock_2013.1_src/data/scripts/dock_solv.prm

>  <Rbt.Receptor>
prm/pocket_docking_7.prm

>  <SCORE>
-37.8076

>  <SCORE.INTER>
-38.0319

>  <SCORE.INTER.CONST>
1

>  <SCORE.INTER.POLAR>
-3.24175

>  <SCORE.INTER.ROT>
10

>  <SCORE.INTER.SOLV>
11.5576

>  <SCORE.INTER.VDW>
-28.6679

>  <SCORE.INTER.norm>
-1.26773

>  <SCORE.INTRA>
0.207153

>  <SCORE.INTRA.DIHEDRAL>
-6.18637

>  <SCORE.INTRA.DIHEDRAL.0>
18.0451

>  <SCORE.INTRA.POLAR>
-0.439896

>  <SCORE.INTRA.POLAR.0>
-0.196815

>  <SCORE.INTRA.REPUL>
0

>  <SCORE.INTRA.REPUL.0>
0

>  <SCORE.INTRA.SOLV>
-0.228036

>  <SCORE.INTRA.SOLV.lig_0>
-14.7906

>  <SCORE.INTRA.VDW>
4.91001

>  <SCORE.INTRA.VDW.0>
-0.411701

>  <SCORE.INTRA.norm>
0.00690511

>  <SCORE.RESTR>
0.0170638

>  <SCORE.RESTR.CAVITY>
0.0170638

>  <SCORE.RESTR.norm>
0.000568795

>  <SCORE.SYSTEM>
0

>  <SCORE.SYSTEM.CONST>
0

>  <SCORE.SYSTEM.DIHEDRAL>
0

>  <SCORE.SYSTEM.SOLV>
0

>  <SCORE.SYSTEM.norm>
0

>  <SCORE.heavy>
30

>  <SCORE.norm>
-1.26025

>  <RMSD>
10.143

$$$$
1uts_lig
 OpenBabel11021811413D
libRbt.so/2013.1/901 2013/11/27
 30 33  0  0  0  0  0  0  0  0999 V2000
   -2.0673    7.6961   11.5076 N   0  0  0  0  0  0  0  0  0  0  0  0
   -2.6114    5.3001   11.4936 C   0  0  0  0  0  0  0  0  0  0  0  0
   -3.7130    4.5206   16.2343 C   0  0  0  0  0  0  0  0  0  0  0  0
   -1.9010    4.8712   12.7807 C   0  0  0  0  0  0  0  0  0  0  0  0
   -2.7417    3.9640   13.5089 O   0  0  0  0  0  0  0  0  0  0  0  0
   -1.8115    6.4133   10.8145 C   0  0  0  0  0  0  0  0  0  0  0  0
   -4.9288    3.6763   16.2661 N   0  0  0  0  0  0  0  0  0  0  0  0
   -6.0803    4.4750   16.7633 C   0  0  0  0  0  0  0  0  0  0  0  0
   -7.3484    3.6163   16.7545 C   0  0  0  0  0  0  0  0  0  0  0  0
   -8.0055    3.7216   15.4324 N   0  0  0  0  0  0  0  0  0  0  0  0
   -9.4649    3.4555   15.5853 C   0  0  0  0  0  0  0  0  0  0  0  0
   -7.3926    2.7373   14.4961 C   0  0  0  0  0  0  0  0  0  0  0  0
  -10.1502    3.5602   14.2132 C   0  0  0  0  0  0  0  0  0  0  0  0
   -8.0807    2.8387   13.1229 C   0  0  0  0  0  0  0  0  0  0  0  0
   -9.5385    2.5752   13.2768 N   0  0  0  0  0  0  0  0  0  0  0  0
   -0.1591    2.0630   15.4959 C   0  0  0  0  0  0  0  0  0  0  0  0
    2.4454    0.4095   21.1577 N   0  0  0  0  0  0  0  0  0  0  0  0
   -0.5826    2.3216   16.8215 C   0  0  0  0  0  0  0  0  0  0  0  0
   -1.7348    3.1191   17.0537 C   0  0  0  0  0  0  0  0  0  0  0  0
   -2.4661    3.6561   15.9588 C   0  0  0  0  0  0  0  0  0  0  0  0
   -2.0279    3.4076   14.6234 C   0  0  0  0  0  0  0  0  0  0  0  0
   -0.8756    2.6060   14.3969 C   0  0  0  0  0  0  0  0  0  0  0  0
    3.3493    1.4936   21.2314 C   0  0  0  0  0  0  0  0  0  0  0  0
    3.0764    2.4482   20.2255 C   0  0  0  0  0  0  0  0  0  0  0  0
    1.2602    2.4983   18.4191 C   0  0  0  0  0  0  0  0  0  0  0  0
    0.1444    1.7900   17.8959 C   0  0  0  0  0  0  0  0  0  0  0  0
   -0.2371    0.5455   18.4685 C   0  0  0  0  0  0  0  0  0  0  0  0
    0.4950    0.0122   19.5636 C   0  0  0  0  0  0  0  0  0  0  0  0
    1.6086    0.7339   20.0966 C   0  0  0  0  0  0  0  0  0  0  0  0
    1.9879    1.9650   19.5310 C   0  0  0  0  0  0  0  0  0  0  0  0
  1  6  1  0  0  0  0
  2  4  1  0  0  0  0
  3  7  1  0  0  0  0
  4  5  1  0  0  0  0
  6  2  1  0  0  0  0
  7  8  1  0  0  0  0
  8  9  1  0  0  0  0
  9 10  1  0  0  0  0
 10 11  1  0  0  0  0
 10 12  1  0  0  0  0
 11 13  1  0  0  0  0
 13 15  1  0  0  0  0
 14 12  1  0  0  0  0
 15 14  1  0  0  0  0
 16 18  2  0  0  0  0
 16 22  1  0  0  0  0
 17 23  1  0  0  0  0
 17 29  1  0  0  0  0
 18 19  1  0  0  0  0
 18 26  1  0  0  0  0
 19 20  2  0  0  0  0
 20  3  1  0  0  0  0
 20 21  1  0  0  0  0
 21  5  1  0  0  0  0
 21 22  2  0  0  0  0
 23 24  2  0  0  0  0
 24 30  1  0  0  0  0
 25 26  2  0  0  0  0
 25 30  1  0  0  0  0
 26 27  1  0  0  0  0
 27 28  2  0  0  0  0
 28 29  1  0  0  0  0
 29 30  2  0  0  0  0
M  END
>  <CHROM.1>
-12.17676848,172.04443834,170.18766312,172.17056996,-78.19997453,178.20129765
-88.11584925,-153.97607524,86.50863039,-91.39553217,117.11233966,-2.83072227
3.16092255,15.97759474,-2.55139882,0.08387972,2.11820274

>  <Name>
1uts_lig

>  <RI>
0

>  <Rbt.Current_Directory>
/home/itssahil/PROJECTS/Mol_Feturizer/New_Systems/rnas/1uts

>  <Rbt.Executable>
rbdock ($Id: //depot/dev/client3/rdock/2013.1/src/exe/rbdock.cxx#4 $)

>  <Rbt.Library>
libRbt.so (2013.1, Build901 2013/11/27)

>  <Rbt.Parameter_File>
/export/apps/rDock/src/rDock_2013.1_src/data/scripts/dock_solv.prm

>  <Rbt.Receptor>
prm/pocket_docking_5.prm

>  <SCORE>
-41.4812

>  <SCORE.INTER>
-42.0077

>  <SCORE.INTER.CONST>
1

>  <SCORE.INTER.POLAR>
-4.37477

>  <SCORE.INTER.ROT>
10

>  <SCORE.INTER.SOLV>
9.98153

>  <SCORE.INTER.VDW>
-27.0164

>  <SCORE.INTER.norm>
-1.40026

>  <SCORE.INTRA>
0.526555

>  <SCORE.INTRA.DIHEDRAL>
0.291751

>  <SCORE.INTRA.DIHEDRAL.0>
18.0451

>  <SCORE.INTRA.POLAR>
0.196815

>  <SCORE.INTRA.POLAR.0>
-0.196815

>  <SCORE.INTRA.REPUL>
0

>  <SCORE.INTRA.REPUL.0>
0

>  <SCORE.INTRA.SOLV>
-0.315375

>  <SCORE.INTRA.SOLV.lig_0>
-14.7906

>  <SCORE.INTRA.VDW>
-0.130805

>  <SCORE.INTRA.VDW.0>
-0.411701

>  <SCORE.INTRA.norm>
0.0175518

>  <SCORE.RESTR>
0

>  <SCORE.RESTR.CAVITY>
0

>  <SCORE.RESTR.norm>
0

>  <SCORE.SYSTEM>
0

>  <SCORE.SYSTEM.CONST>
0

>  <SCORE.SYSTEM.DIHEDRAL>
0

>  <SCORE.SYSTEM.SOLV>
0

>  <SCORE.SYSTEM.norm>
0

>  <SCORE.heavy>
30

>  <SCORE.norm>
-1.38271

>  <RMSD>
10.145

$$$$
1uts_lig
 OpenBabel11021811413D
libRbt.so/2013.1/901 2013/11/27
 30 33  0  0  0  0  0  0  0  0999 V2000
   -6.2297   -0.1905   16.8597 N   0  0  0  0  0  0  0  0  0  0  0  0
   -5.1840    1.6271   15.5790 C   0  0  0  0  0  0  0  0  0  0  0  0
   -1.6044    3.3441   14.7346 C   0  0  0  0  0  0  0  0  0  0  0  0
   -3.7450    1.4880   16.0843 C   0  0  0  0  0  0  0  0  0  0  0  0
   -2.9697    0.7616   15.1194 O   0  0  0  0  0  0  0  0  0  0  0  0
   -5.8346    0.2447   15.5011 C   0  0  0  0  0  0  0  0  0  0  0  0
   -1.1030    3.7128   13.3912 N   0  0  0  0  0  0  0  0  0  0  0  0
   -2.2502    3.9977   12.4892 C   0  0  0  0  0  0  0  0  0  0  0  0
   -1.7353    4.3293   11.0854 C   0  0  0  0  0  0  0  0  0  0  0  0
   -2.8523    4.2431   10.1180 N   0  0  0  0  0  0  0  0  0  0  0  0
   -2.3019    4.2075    8.7324 C   0  0  0  0  0  0  0  0  0  0  0  0
   -3.7483    5.4212   10.2915 C   0  0  0  0  0  0  0  0  0  0  0  0
   -3.4594    4.1219    7.7245 C   0  0  0  0  0  0  0  0  0  0  0  0
   -4.9058    5.3385    9.2802 C   0  0  0  0  0  0  0  0  0  0  0  0
   -4.3553    5.3005    7.8968 N   0  0  0  0  0  0  0  0  0  0  0  0
    0.5116   -0.2005   16.2089 C   0  0  0  0  0  0  0  0  0  0  0  0
    6.6905    1.5185   17.1696 N   0  0  0  0  0  0  0  0  0  0  0  0
    1.2082    1.0171   16.0206 C   0  0  0  0  0  0  0  0  0  0  0  0
    0.5166    2.1618   15.5422 C   0  0  0  0  0  0  0  0  0  0  0  0
   -0.8741    2.0894   15.2546 C   0  0  0  0  0  0  0  0  0  0  0  0
   -1.5711    0.8563   15.4296 C   0  0  0  0  0  0  0  0  0  0  0  0
   -0.8743   -0.2854   15.9118 C   0  0  0  0  0  0  0  0  0  0  0  0
    6.7855    2.9136   16.9636 C   0  0  0  0  0  0  0  0  0  0  0  0
    5.5392    3.4524   16.5711 C   0  0  0  0  0  0  0  0  0  0  0  0
    3.2637    2.3244   16.2344 C   0  0  0  0  0  0  0  0  0  0  0  0
    2.5796    1.0804   16.3049 C   0  0  0  0  0  0  0  0  0  0  0  0
    3.2870   -0.0978   16.6708 C   0  0  0  0  0  0  0  0  0  0  0  0
    4.6751   -0.0306   16.9677 C   0  0  0  0  0  0  0  0  0  0  0  0
    5.3574    1.2248   16.9094 C   0  0  0  0  0  0  0  0  0  0  0  0
    4.6594    2.3913   16.5470 C   0  0  0  0  0  0  0  0  0  0  0  0
  1  6  1  0  0  0  0
  2  4  1  0  0  0  0
  3  7  1  0  0  0  0
  4  5  1  0  0  0  0
  6  2  1  0  0  0  0
  7  8  1  0  0  0  0
  8  9  1  0  0  0  0
  9 10  1  0  0  0  0
 10 11  1  0  0  0  0
 10 12  1  0  0  0  0
 11 13  1  0  0  0  0
 13 15  1  0  0  0  0
 14 12  1  0  0  0  0
 15 14  1  0  0  0  0
 16 18  2  0  0  0  0
 16 22  1  0  0  0  0
 17 23  1  0  0  0  0
 17 29  1  0  0  0  0
 18 19  1  0  0  0  0
 18 26  1  0  0  0  0
 19 20  2  0  0  0  0
 20  3  1  0  0  0  0
 20 21  1  0  0  0  0
 21  5  1  0  0  0  0
 21 22  2  0  0  0  0
 23 24  2  0  0  0  0
 24 30  1  0  0  0  0
 25 26  2  0  0  0  0
 25 30  1  0  0  0  0
 26 27  1  0  0  0  0
 27 28  2  0  0  0  0
 28 29  1  0  0  0  0
 29 30  2  0  0  0  0
M  END
>  <CHROM.1>
62.64773781,65.20771452,133.59434287,168.03509756,77.66762211,-177.93734635
164.45880183,-165.20805337,-174.38133799,66.10439455,-70.72027715,-0.54734578
2.31984714,14.21172670,2.49656072,-0.15111455,-0.99230902

>  <Name>
1uts_lig

>  <RI>
0

>  <Rbt.Current_Directory>
/home/itssahil/PROJECTS/Mol_Feturizer/New_Systems/rnas/1uts

>  <Rbt.Executable>
rbdock ($Id: //depot/dev/client3/rdock/2013.1/src/exe/rbdock.cxx#4 $)

>  <Rbt.Library>
libRbt.so (2013.1, Build901 2013/11/27)

>  <Rbt.Parameter_File>
/export/apps/rDock/src/rDock_2013.1_src/data/scripts/dock_solv.prm

>  <Rbt.Receptor>
prm/pocket_docking_5.prm

>  <SCORE>
-33.5873

>  <SCORE.INTER>
-32.5722

>  <SCORE.INTER.CONST>
1

>  <SCORE.INTER.POLAR>
-3.30634

>  <SCORE.INTER.ROT>
10

>  <SCORE.INTER.SOLV>
8.50026

>  <SCORE.INTER.VDW>
-23.7937

>  <SCORE.INTER.norm>
-1.08574

>  <SCORE.INTRA>
-1.01829

>  <SCORE.INTRA.DIHEDRAL>
-6.5712

>  <SCORE.INTRA.DIHEDRAL.0>
18.0451

>  <SCORE.INTRA.POLAR>
0.196815

>  <SCORE.INTRA.POLAR.0>
-0.196815

>  <SCORE.INTRA.REPUL>
0

>  <SCORE.INTRA.REPUL.0>
0

>  <SCORE.INTRA.SOLV>
-0.393614

>  <SCORE.INTRA.SOLV.lig_0>
-14.7906

>  <SCORE.INTRA.VDW>
1.79494

>  <SCORE.INTRA.VDW.0>
-0.411701

>  <SCORE.INTRA.norm>
-0.0339431

>  <SCORE.RESTR>
0.00320696

>  <SCORE.RESTR.CAVITY>
0.00320696

>  <SCORE.RESTR.norm>
0.000106899

>  <SCORE.SYSTEM>
0

>  <SCORE.SYSTEM.CONST>
0

>  <SCORE.SYSTEM.DIHEDRAL>
0

>  <SCORE.SYSTEM.SOLV>
0

>  <SCORE.SYSTEM.norm>
0

>  <SCORE.heavy>
30

>  <SCORE.norm>
-1.11958

>  <RMSD>
10.156

$$$$
1uts_lig
 OpenBabel11021811413D
libRbt.so/2013.1/901 2013/11/27
 30 33  0  0  0  0  0  0  0  0999 V2000
   -2.2483    7.6734   11.0507 N   0  0  0  0  0  0  0  0  0  0  0  0
   -2.7657    5.3618   11.7035 C   0  0  0  0  0  0  0  0  0  0  0  0
   -3.2311    2.1265   15.5529 C   0  0  0  0  0  0  0  0  0  0  0  0
   -2.2726    4.1639   12.5202 C   0  0  0  0  0  0  0  0  0  0  0  0
   -2.4303    4.4439   13.9190 O   0  0  0  0  0  0  0  0  0  0  0  0
   -1.8143    6.5431   11.9025 C   0  0  0  0  0  0  0  0  0  0  0  0
   -4.1589    3.2572   15.7825 N   0  0  0  0  0  0  0  0  0  0  0  0
   -5.4829    2.7384   16.2168 C   0  0  0  0  0  0  0  0  0  0  0  0
   -6.5716    3.7681   15.9008 C   0  0  0  0  0  0  0  0  0  0  0  0
   -7.6975    3.0988   15.2113 N   0  0  0  0  0  0  0  0  0  0  0  0
   -7.5303    3.2476   13.7369 C   0  0  0  0  0  0  0  0  0  0  0  0
   -8.9821    3.7114   15.6535 C   0  0  0  0  0  0  0  0  0  0  0  0
   -8.7000    2.5568   13.0174 C   0  0  0  0  0  0  0  0  0  0  0  0
  -10.1540    3.0230   14.9308 C   0  0  0  0  0  0  0  0  0  0  0  0
   -9.9850    3.1699   13.4583 N   0  0  0  0  0  0  0  0  0  0  0  0
    0.9179    3.5327   15.3994 C   0  0  0  0  0  0  0  0  0  0  0  0
    4.7120   -0.0839   19.0710 N   0  0  0  0  0  0  0  0  0  0  0  0
    0.5711    2.4263   16.2111 C   0  0  0  0  0  0  0  0  0  0  0  0
   -0.7753    1.9761   16.2566 C   0  0  0  0  0  0  0  0  0  0  0  0
   -1.7754    2.6312   15.4870 C   0  0  0  0  0  0  0  0  0  0  0  0
   -1.4266    3.7569   14.6817 C   0  0  0  0  0  0  0  0  0  0  0  0
   -0.0767    4.2012   14.6377 C   0  0  0  0  0  0  0  0  0  0  0  0
    5.6687   -0.0830   18.0306 C   0  0  0  0  0  0  0  0  0  0  0  0
    5.1348    0.4896   16.8538 C   0  0  0  0  0  0  0  0  0  0  0  0
    2.8253    1.4947   16.3847 C   0  0  0  0  0  0  0  0  0  0  0  0
    1.5624    1.7863   16.9682 C   0  0  0  0  0  0  0  0  0  0  0  0
    1.3090    1.4342   18.3225 C   0  0  0  0  0  0  0  0  0  0  0  0
    2.3179    0.7938   19.0917 C   0  0  0  0  0  0  0  0  0  0  0  0
    3.5922    0.5143   18.5060 C   0  0  0  0  0  0  0  0  0  0  0  0
    3.8445    0.8614   17.1661 C   0  0  0  0  0  0  0  0  0  0  0  0
  1  6  1  0  0  0  0
  2  4  1  0  0  0  0
  3  7  1  0  0  0  0
  4  5  1  0  0  0  0
  6  2  1  0  0  0  0
  7  8  1  0  0  0  0
  8  9  1  0  0  0  0
  9 10  1  0  0  0  0
 10 11  1  0  0  0  0
 10 12  1  0  0  0  0
 11 13  1  0  0  0  0
 13 15  1  0  0  0  0
 14 12  1  0  0  0  0
 15 14  1  0  0  0  0
 16 18  2  0  0  0  0
 16 22  1  0  0  0  0
 17 23  1  0  0  0  0
 17 29  1  0  0  0  0
 18 19  1  0  0  0  0
 18 26  1  0  0  0  0
 19 20  2  0  0  0  0
 20  3  1  0  0  0  0
 20 21  1  0  0  0  0
 21  5  1  0  0  0  0
 21 22  2  0  0  0  0
 23 24  2  0  0  0  0
 24 30  1  0  0  0  0
 25 26  2  0  0  0  0
 25 30  1  0  0  0  0
 26 27  1  0  0  0  0
 27 28  2  0  0  0  0
 28 29  1  0  0  0  0
 29 30  2  0  0  0  0
M  END
>  <CHROM.1>
52.02009685,68.90262230,-164.36072829,-150.18576771,176.69869635,-156.57449150
131.36583877,-95.25236427,-44.25339856,131.18555786,-107.77402809,-2.07475412
2.90958386,15.35534880,-2.75599362,0.02732656,2.29609384

>  <Name>
1uts_lig

>  <RI>
0

>  <Rbt.Current_Directory>
/home/itssahil/PROJECTS/Mol_Feturizer/New_Systems/rnas/1uts

>  <Rbt.Executable>
rbdock ($Id: //depot/dev/client3/rdock/2013.1/src/exe/rbdock.cxx#4 $)

>  <Rbt.Library>
libRbt.so (2013.1, Build901 2013/11/27)

>  <Rbt.Parameter_File>
/export/apps/rDock/src/rDock_2013.1_src/data/scripts/dock_solv.prm

>  <Rbt.Receptor>
prm/pocket_docking_5.prm

>  <SCORE>
-31.0792

>  <SCORE.INTER>
-31.3205

>  <SCORE.INTER.CONST>
1

>  <SCORE.INTER.POLAR>
-2.03343

>  <SCORE.INTER.ROT>
10

>  <SCORE.INTER.SOLV>
10.3733

>  <SCORE.INTER.VDW>
-27.8267

>  <SCORE.INTER.norm>
-1.04402

>  <SCORE.INTRA>
0.241313

>  <SCORE.INTRA.DIHEDRAL>
2.56099

>  <SCORE.INTRA.DIHEDRAL.0>
18.0451

>  <SCORE.INTRA.POLAR>
-0.104882

>  <SCORE.INTRA.POLAR.0>
-0.196815

>  <SCORE.INTRA.REPUL>
0

>  <SCORE.INTRA.REPUL.0>
0

>  <SCORE.INTRA.SOLV>
-0.279949

>  <SCORE.INTRA.SOLV.lig_0>
-14.7906

>  <SCORE.INTRA.VDW>
-0.542611

>  <SCORE.INTRA.VDW.0>
-0.411701

>  <SCORE.INTRA.norm>
0.00804375

>  <SCORE.RESTR>
0

>  <SCORE.RESTR.CAVITY>
0

>  <SCORE.RESTR.norm>
0

>  <SCORE.SYSTEM>
0

>  <SCORE.SYSTEM.CONST>
0

>  <SCORE.SYSTEM.DIHEDRAL>
0

>  <SCORE.SYSTEM.SOLV>
0

>  <SCORE.SYSTEM.norm>
0

>  <SCORE.heavy>
30

>  <SCORE.norm>
-1.03597

>  <RMSD>
10.160

$$$$
1uts_lig
 OpenBabel11021811413D
libRbt.so/2013.1/901 2013/11/27
 30 33  0  0  0  0  0  0  0  0999 V2000
   -8.4237    2.6320   12.7508 N   0  0  0  0  0  0  0  0  0  0  0  0
   -7.0302    3.7737   14.4216 C   0  0  0  0  0  0  0  0  0  0  0  0
   -1.7753    3.2235   13.7436 C   0  0  0  0  0  0  0  0  0  0  0  0
   -5.9478    2.6908   14.4523 C   0  0  0  0  0  0  0  0  0  0  0  0
   -4.7132    3.2376   13.9659 O   0  0  0  0  0  0  0  0  0  0  0  0
   -8.3900    3.1302   14.1444 C   0  0  0  0  0  0  0  0  0  0  0  0
   -1.6842    4.2678   12.6980 N   0  0  0  0  0  0  0  0  0  0  0  0
   -1.3866    3.6371   11.3848 C   0  0  0  0  0  0  0  0  0  0  0  0
   -1.5981    4.6560   10.2612 C   0  0  0  0  0  0  0  0  0  0  0  0
   -2.9075    4.4125    9.6153 N   0  0  0  0  0  0  0  0  0  0  0  0
   -2.8045    4.7241    8.1606 C   0  0  0  0  0  0  0  0  0  0  0  0
   -3.9429    5.2696   10.2589 C   0  0  0  0  0  0  0  0  0  0  0  0
   -4.1639    4.4760    7.4871 C   0  0  0  0  0  0  0  0  0  0  0  0
   -5.3039    5.0247    9.5827 C   0  0  0  0  0  0  0  0  0  0  0  0
   -5.1997    5.3339    8.1295 N   0  0  0  0  0  0  0  0  0  0  0  0
   -3.8247    4.7774   17.2932 C   0  0  0  0  0  0  0  0  0  0  0  0
    0.7193    6.8400   21.4231 N   0  0  0  0  0  0  0  0  0  0  0  0
   -2.4106    4.7720   17.2333 C   0  0  0  0  0  0  0  0  0  0  0  0
   -1.7529    4.2666   16.0803 C   0  0  0  0  0  0  0  0  0  0  0  0
   -2.5103    3.7689   14.9847 C   0  0  0  0  0  0  0  0  0  0  0  0
   -3.9359    3.7602   15.0539 C   0  0  0  0  0  0  0  0  0  0  0  0
   -4.5889    4.2703   16.2093 C   0  0  0  0  0  0  0  0  0  0  0  0
    1.8445    7.1922   20.6435 C   0  0  0  0  0  0  0  0  0  0  0  0
    1.6469    6.8482   19.2869 C   0  0  0  0  0  0  0  0  0  0  0  0
   -0.3591    5.7711   18.1122 C   0  0  0  0  0  0  0  0  0  0  0  0
   -1.6705    5.2630   18.3181 C   0  0  0  0  0  0  0  0  0  0  0  0
   -2.2326    5.2602   19.6243 C   0  0  0  0  0  0  0  0  0  0  0  0
   -1.4849    5.7667   20.7215 C   0  0  0  0  0  0  0  0  0  0  0  0
   -0.1711    6.2899   20.5089 C   0  0  0  0  0  0  0  0  0  0  0  0
    0.3869    6.2930   19.2174 C   0  0  0  0  0  0  0  0  0  0  0  0
  1  6  1  0  0  0  0
  2  4  1  0  0  0  0
  3  7  1  0  0  0  0
  4  5  1  0  0  0  0
  6  2  1  0  0  0  0
  7  8  1  0  0  0  0
  8  9  1  0  0  0  0
  9 10  1  0  0  0  0
 10 11  1  0  0  0  0
 10 12  1  0  0  0  0
 11 13  1  0  0  0  0
 13 15  1  0  0  0  0
 14 12  1  0  0  0  0
 15 14  1  0  0  0  0
 16 18  2  0  0  0  0
 16 22  1  0  0  0  0
 17 23  1  0  0  0  0
 17 29  1  0  0  0  0
 18 19  1  0  0  0  0
 18 26  1  0  0  0  0
 19 20  2  0  0  0  0
 20  3  1  0  0  0  0
 20 21  1  0  0  0  0
 21  5  1  0  0  0  0
 21 22  2  0  0  0  0
 23 24  2  0  0  0  0
 24 30  1  0  0  0  0
 25 26  2  0  0  0  0
 25 30  1  0  0  0  0
 26 27  1  0  0  0  0
 27 28  2  0  0  0  0
 28 29  1  0  0  0  0
 29 30  2  0  0  0  0
M  END
>  <CHROM.1>
-164.74196380,147.83504721,-161.89255500,91.62659561,-69.29749832,167.47338091
-100.75168216,-145.69814998,-154.49498594,-96.59810793,150.23934568,-2.96657656
4.68107566,14.64819128,2.02607031,-0.33952793,-1.59907337

>  <Name>
1uts_lig

>  <RI>
0

>  <Rbt.Current_Directory>
/home/itssahil/PROJECTS/Mol_Feturizer/New_Systems/rnas/1uts

>  <Rbt.Executable>
rbdock ($Id: //depot/dev/client3/rdock/2013.1/src/exe/rbdock.cxx#4 $)

>  <Rbt.Library>
libRbt.so (2013.1, Build901 2013/11/27)

>  <Rbt.Parameter_File>
/export/apps/rDock/src/rDock_2013.1_src/data/scripts/dock_solv.prm

>  <Rbt.Receptor>
prm/pocket_docking_6.prm

>  <SCORE>
-30.0975

>  <SCORE.INTER>
-33.6089

>  <SCORE.INTER.CONST>
1

>  <SCORE.INTER.POLAR>
-2.27206

>  <SCORE.INTER.ROT>
10

>  <SCORE.INTER.SOLV>
10.2849

>  <SCORE.INTER.VDW>
-28.5274

>  <SCORE.INTER.norm>
-1.1203

>  <SCORE.INTRA>
3.51142

>  <SCORE.INTRA.DIHEDRAL>
0.060013

>  <SCORE.INTRA.DIHEDRAL.0>
18.0451

>  <SCORE.INTRA.POLAR>
0.196815

>  <SCORE.INTRA.POLAR.0>
-0.196815

>  <SCORE.INTRA.REPUL>
0

>  <SCORE.INTRA.REPUL.0>
0

>  <SCORE.INTRA.SOLV>
-0.240477

>  <SCORE.INTRA.SOLV.lig_0>
-14.7906

>  <SCORE.INTRA.VDW>
2.93248

>  <SCORE.INTRA.VDW.0>
-0.411701

>  <SCORE.INTRA.norm>
0.117047

>  <SCORE.RESTR>
0

>  <SCORE.RESTR.CAVITY>
0

>  <SCORE.RESTR.norm>
0

>  <SCORE.SYSTEM>
0

>  <SCORE.SYSTEM.CONST>
0

>  <SCORE.SYSTEM.DIHEDRAL>
0

>  <SCORE.SYSTEM.SOLV>
0

>  <SCORE.SYSTEM.norm>
0

>  <SCORE.heavy>
30

>  <SCORE.norm>
-1.00325

>  <RMSD>
10.190

$$$$
1uts_lig
 OpenBabel11021811413D
libRbt.so/2013.1/901 2013/11/27
 30 33  0  0  0  0  0  0  0  0999 V2000
   -1.4674    4.6506    9.9763 N   0  0  0  0  0  0  0  0  0  0  0  0
   -2.7716    4.4608   12.0500 C   0  0  0  0  0  0  0  0  0  0  0  0
   -2.9384    4.7820   16.9369 C   0  0  0  0  0  0  0  0  0  0  0  0
   -1.7229    4.7044   13.1391 C   0  0  0  0  0  0  0  0  0  0  0  0
   -2.0248    3.8899   14.2815 O   0  0  0  0  0  0  0  0  0  0  0  0
   -2.4598    5.3359   10.8346 C   0  0  0  0  0  0  0  0  0  0  0  0
   -3.7796    3.7054   16.3664 N   0  0  0  0  0  0  0  0  0  0  0  0
   -4.9741    4.2984   15.7086 C   0  0  0  0  0  0  0  0  0  0  0  0
   -6.2336    3.5446   16.1456 C   0  0  0  0  0  0  0  0  0  0  0  0
   -7.2863    3.7071   15.1178 N   0  0  0  0  0  0  0  0  0  0  0  0
   -8.5878    3.2282   15.6661 C   0  0  0  0  0  0  0  0  0  0  0  0
   -6.9154    2.9277   13.9030 C   0  0  0  0  0  0  0  0  0  0  0  0
   -9.6831    3.3918   14.5999 C   0  0  0  0  0  0  0  0  0  0  0  0
   -8.0132    3.0878   12.8359 C   0  0  0  0  0  0  0  0  0  0  0  0
   -9.3132    2.6115   13.3851 N   0  0  0  0  0  0  0  0  0  0  0  0
    1.2987    4.0858   16.0556 C   0  0  0  0  0  0  0  0  0  0  0  0
    4.9048    5.1996   21.2335 N   0  0  0  0  0  0  0  0  0  0  0  0
    0.9028    4.5315   17.3392 C   0  0  0  0  0  0  0  0  0  0  0  0
   -0.4718    4.7556   17.6180 C   0  0  0  0  0  0  0  0  0  0  0  0
   -1.4519    4.5307   16.6127 C   0  0  0  0  0  0  0  0  0  0  0  0
   -1.0490    4.0969   15.3140 C   0  0  0  0  0  0  0  0  0  0  0  0
    0.3282    3.8712   15.0416 C   0  0  0  0  0  0  0  0  0  0  0  0
    5.4051    3.8782   21.1986 C   0  0  0  0  0  0  0  0  0  0  0  0
    4.6801    3.0876   20.2783 C   0  0  0  0  0  0  0  0  0  0  0  0
    2.7261    3.6904   18.7349 C   0  0  0  0  0  0  0  0  0  0  0  0
    1.8750    4.7525   18.3250 C   0  0  0  0  0  0  0  0  0  0  0  0
    2.0160    6.0404   18.9111 C   0  0  0  0  0  0  0  0  0  0  0  0
    3.0080    6.2655   19.9035 C   0  0  0  0  0  0  0  0  0  0  0  0
    3.8719    5.1985   20.3038 C   0  0  0  0  0  0  0  0  0  0  0  0
    3.7334    3.9235   19.7255 C   0  0  0  0  0  0  0  0  0  0  0  0
  1  6  1  0  0  0  0
  2  4  1  0  0  0  0
  3  7  1  0  0  0  0
  4  5  1  0  0  0  0
  6  2  1  0  0  0  0
  7  8  1  0  0  0  0
  8  9  1  0  0  0  0
  9 10  1  0  0  0  0
 10 11  1  0  0  0  0
 10 12  1  0  0  0  0
 11 13  1  0  0  0  0
 13 15  1  0  0  0  0
 14 12  1  0  0  0  0
 15 14  1  0  0  0  0
 16 18  2  0  0  0  0
 16 22  1  0  0  0  0
 17 23  1  0  0  0  0
 17 29  1  0  0  0  0
 18 19  1  0  0  0  0
 18 26  1  0  0  0  0
 19 20  2  0  0  0  0
 20  3  1  0  0  0  0
 20 21  1  0  0  0  0
 21  5  1  0  0  0  0
 21 22  2  0  0  0  0
 23 24  2  0  0  0  0
 24 30  1  0  0  0  0
 25 26  2  0  0  0  0
 25 30  1  0  0  0  0
 26 27  1  0  0  0  0
 27 28  2  0  0  0  0
 28 29  1  0  0  0  0
 29 30  2  0  0  0  0
M  END
>  <CHROM.1>
-53.81294280,179.53624188,-135.45399254,179.68278830,84.56367060,-132.73839648
-155.83949407,-168.05145786,-58.99580932,-138.12168842,122.56332035,-1.75455650
4.18493821,16.09737861,-2.64545055,0.14660625,1.64948895

>  <Name>
1uts_lig

>  <RI>
0

>  <Rbt.Current_Directory>
/home/itssahil/PROJECTS/Mol_Feturizer/New_Systems/rnas/1uts

>  <Rbt.Executable>
rbdock ($Id: //depot/dev/client3/rdock/2013.1/src/exe/rbdock.cxx#4 $)

>  <Rbt.Library>
libRbt.so (2013.1, Build901 2013/11/27)

>  <Rbt.Parameter_File>
/export/apps/rDock/src/rDock_2013.1_src/data/scripts/dock_solv.prm

>  <Rbt.Receptor>
prm/pocket_docking_5.prm

>  <SCORE>
-36.6588

>  <SCORE.INTER>
-36.1008

>  <SCORE.INTER.CONST>
1

>  <SCORE.INTER.POLAR>
-2.69014

>  <SCORE.INTER.ROT>
10

>  <SCORE.INTER.SOLV>
8.53662

>  <SCORE.INTER.VDW>
-28.2123

>  <SCORE.INTER.norm>
-1.20336

>  <SCORE.INTRA>
-0.558022

>  <SCORE.INTRA.DIHEDRAL>
0.199567

>  <SCORE.INTRA.DIHEDRAL.0>
18.0451

>  <SCORE.INTRA.POLAR>
-0.362959

>  <SCORE.INTRA.POLAR.0>
-0.196815

>  <SCORE.INTRA.REPUL>
0

>  <SCORE.INTRA.REPUL.0>
0

>  <SCORE.INTRA.SOLV>
-0.238715

>  <SCORE.INTRA.SOLV.lig_0>
-14.7906

>  <SCORE.INTRA.VDW>
0.695612

>  <SCORE.INTRA.VDW.0>
-0.411701

>  <SCORE.INTRA.norm>
-0.0186007

>  <SCORE.RESTR>
0

>  <SCORE.RESTR.CAVITY>
0

>  <SCORE.RESTR.norm>
0

>  <SCORE.SYSTEM>
0

>  <SCORE.SYSTEM.CONST>
0

>  <SCORE.SYSTEM.DIHEDRAL>
0

>  <SCORE.SYSTEM.SOLV>
0

>  <SCORE.SYSTEM.norm>
0

>  <SCORE.heavy>
30

>  <SCORE.norm>
-1.22196

>  <RMSD>
10.200

$$$$
1uts_lig
 OpenBabel11021811413D
libRbt.so/2013.1/901 2013/11/27
 30 33  0  0  0  0  0  0  0  0999 V2000
   -7.4077    3.8886   15.0263 N   0  0  0  0  0  0  0  0  0  0  0  0
   -5.2119    2.9812   15.6526 C   0  0  0  0  0  0  0  0  0  0  0  0
   -1.6725    3.8567   13.7004 C   0  0  0  0  0  0  0  0  0  0  0  0
   -3.9184    3.2897   16.4122 C   0  0  0  0  0  0  0  0  0  0  0  0
   -3.4031    4.5575   15.9796 O   0  0  0  0  0  0  0  0  0  0  0  0
   -6.2241    4.1037   15.8890 C   0  0  0  0  0  0  0  0  0  0  0  0
   -1.7169    5.0237   12.7903 N   0  0  0  0  0  0  0  0  0  0  0  0
   -1.7158    4.5579   11.3782 C   0  0  0  0  0  0  0  0  0  0  0  0
   -1.6418    5.7627   10.4356 C   0  0  0  0  0  0  0  0  0  0  0  0
   -2.9893    6.3575   10.2896 N   0  0  0  0  0  0  0  0  0  0  0  0
   -3.8988    5.3648    9.6483 C   0  0  0  0  0  0  0  0  0  0  0  0
   -2.8975    7.5913    9.4589 C   0  0  0  0  0  0  0  0  0  0  0  0
   -5.2986    5.9805    9.4916 C   0  0  0  0  0  0  0  0  0  0  0  0
   -4.2993    8.2067    9.2981 C   0  0  0  0  0  0  0  0  0  0  0  0
   -5.2077    7.2139    8.6598 N   0  0  0  0  0  0  0  0  0  0  0  0
   -0.0241    5.0165   17.5930 C   0  0  0  0  0  0  0  0  0  0  0  0
    6.4341    4.8458   17.0952 N   0  0  0  0  0  0  0  0  0  0  0  0
    0.8417    4.6697   16.5284 C   0  0  0  0  0  0  0  0  0  0  0  0
    0.3010    4.2944   15.2697 C   0  0  0  0  0  0  0  0  0  0  0  0
   -1.1073    4.2688   15.0747 C   0  0  0  0  0  0  0  0  0  0  0  0
   -1.9789    4.6031   16.1544 C   0  0  0  0  0  0  0  0  0  0  0  0
   -1.4318    4.9811   17.4112 C   0  0  0  0  0  0  0  0  0  0  0  0
    6.7454    4.9684   15.7220 C   0  0  0  0  0  0  0  0  0  0  0  0
    5.5712    4.9609   14.9352 C   0  0  0  0  0  0  0  0  0  0  0  0
    3.1063    4.7992   15.6150 C   0  0  0  0  0  0  0  0  0  0  0  0
    2.2291    4.6957   16.7286 C   0  0  0  0  0  0  0  0  0  0  0  0
    2.7608    4.6258   18.0457 C   0  0  0  0  0  0  0  0  0  0  0  0
    4.1670    4.6616   18.2479 C   0  0  0  0  0  0  0  0  0  0  0  0
    5.0464    4.7798   17.1265 C   0  0  0  0  0  0  0  0  0  0  0  0
    4.5222    4.8485   15.8227 C   0  0  0  0  0  0  0  0  0  0  0  0
  1  6  1  0  0  0  0
  2  4  1  0  0  0  0
  3  7  1  0  0  0  0
  4  5  1  0  0  0  0
  6  2  1  0  0  0  0
  7  8  1  0  0  0  0
  8  9  1  0  0  0  0
  9 10  1  0  0  0  0
 10 11  1  0  0  0  0
 10 12  1  0  0  0  0
 11 13  1  0  0  0  0
 13 15  1  0  0  0  0
 14 12  1  0  0  0  0
 15 14  1  0  0  0  0
 16 18  2  0  0  0  0
 16 22  1  0  0  0  0
 17 23  1  0  0  0  0
 17 29  1  0  0  0  0
 18 19  1  0  0  0  0
 18 26  1  0  0  0  0
 19 20  2  0  0  0  0
 20  3  1  0  0  0  0
 20 21  1  0  0  0  0
 21  5  1  0  0  0  0
 21 22  2  0  0  0  0
 23 24  2  0  0  0  0
 24 30  1  0  0  0  0
 25 26  2  0  0  0  0
 25 30  1  0  0  0  0
 26 27  1  0  0  0  0
 27 28  2  0  0  0  0
 28 29  1  0  0  0  0
 29 30  2  0  0  0  0
M  END
>  <CHROM.1>
74.60713519,-57.71255648,157.00451289,-153.18123136,173.14287690,-175.22844896
-80.56576279,-63.41712861,-158.79809195,-85.03766817,94.56636015,-0.88978425
5.01314965,14.25914850,2.59218091,-0.10695218,-1.21770899

>  <Name>
1uts_lig

>  <RI>
0

>  <Rbt.Current_Directory>
/home/itssahil/PROJECTS/Mol_Feturizer/New_Systems/rnas/1uts

>  <Rbt.Executable>
rbdock ($Id: //depot/dev/client3/rdock/2013.1/src/exe/rbdock.cxx#4 $)

>  <Rbt.Library>
libRbt.so (2013.1, Build901 2013/11/27)

>  <Rbt.Parameter_File>
/export/apps/rDock/src/rDock_2013.1_src/data/scripts/dock_solv.prm

>  <Rbt.Receptor>
prm/pocket_docking_7.prm

>  <SCORE>
-43.9181

>  <SCORE.INTER>
-42.8741

>  <SCORE.INTER.CONST>
1

>  <SCORE.INTER.POLAR>
-2.95711

>  <SCORE.INTER.ROT>
10

>  <SCORE.INTER.SOLV>
9.57273

>  <SCORE.INTER.VDW>
-32.1833

>  <SCORE.INTER.norm>
-1.42914

>  <SCORE.INTRA>
-1.04398

>  <SCORE.INTRA.DIHEDRAL>
-5.53818

>  <SCORE.INTRA.DIHEDRAL.0>
18.0451

>  <SCORE.INTRA.POLAR>
0.196815

>  <SCORE.INTRA.POLAR.0>
-0.196815

>  <SCORE.INTRA.REPUL>
0

>  <SCORE.INTRA.REPUL.0>
0

>  <SCORE.INTRA.SOLV>
-0.355252

>  <SCORE.INTRA.SOLV.lig_0>
-14.7906

>  <SCORE.INTRA.VDW>
1.23356

>  <SCORE.INTRA.VDW.0>
-0.411701

>  <SCORE.INTRA.norm>
-0.0347994

>  <SCORE.RESTR>
0

>  <SCORE.RESTR.CAVITY>
0

>  <SCORE.RESTR.norm>
0

>  <SCORE.SYSTEM>
0

>  <SCORE.SYSTEM.CONST>
0

>  <SCORE.SYSTEM.DIHEDRAL>
0

>  <SCORE.SYSTEM.SOLV>
0

>  <SCORE.SYSTEM.norm>
0

>  <SCORE.heavy>
30

>  <SCORE.norm>
-1.46394

>  <RMSD>
10.221

$$$$
1uts_lig
 OpenBabel11021811413D
libRbt.so/2013.1/901 2013/11/27
 30 33  0  0  0  0  0  0  0  0999 V2000
   -1.2399    4.4796    9.8606 N   0  0  0  0  0  0  0  0  0  0  0  0
   -2.6629    4.3604   11.8601 C   0  0  0  0  0  0  0  0  0  0  0  0
   -3.1870    4.7254   16.7044 C   0  0  0  0  0  0  0  0  0  0  0  0
   -1.6812    4.6650   12.9954 C   0  0  0  0  0  0  0  0  0  0  0  0
   -2.0155    3.8673   14.1407 O   0  0  0  0  0  0  0  0  0  0  0  0
   -2.2912    5.1860   10.6271 C   0  0  0  0  0  0  0  0  0  0  0  0
   -3.9104    3.7111   15.9045 N   0  0  0  0  0  0  0  0  0  0  0  0
   -5.3455    4.0862   15.7997 C   0  0  0  0  0  0  0  0  0  0  0  0
   -6.0675    3.1145   14.8615 C   0  0  0  0  0  0  0  0  0  0  0  0
   -7.4810    3.5288   14.7162 N   0  0  0  0  0  0  0  0  0  0  0  0
   -8.2164    3.2209   15.9764 C   0  0  0  0  0  0  0  0  0  0  0  0
   -8.0927    2.8040   13.5667 C   0  0  0  0  0  0  0  0  0  0  0  0
   -9.6862    3.6464   15.8278 C   0  0  0  0  0  0  0  0  0  0  0  0
   -9.5656    3.2265   13.4192 C   0  0  0  0  0  0  0  0  0  0  0  0
  -10.2988    2.9208   14.6790 N   0  0  0  0  0  0  0  0  0  0  0  0
    1.1450    4.3660   16.1393 C   0  0  0  0  0  0  0  0  0  0  0  0
    3.9708    5.9920   21.7400 N   0  0  0  0  0  0  0  0  0  0  0  0
    0.6230    4.7990   17.3816 C   0  0  0  0  0  0  0  0  0  0  0  0
   -0.7818    4.9137   17.5578 C   0  0  0  0  0  0  0  0  0  0  0  0
   -1.6656    4.5920   16.4913 C   0  0  0  0  0  0  0  0  0  0  0  0
   -1.1364    4.1712   15.2343 C   0  0  0  0  0  0  0  0  0  0  0  0
    0.2705    4.0553   15.0647 C   0  0  0  0  0  0  0  0  0  0  0  0
    2.9933    5.8609   22.7525 C   0  0  0  0  0  0  0  0  0  0  0  0
    1.7328    5.5400   22.1993 C   0  0  0  0  0  0  0  0  0  0  0  0
    1.0257    5.1539   19.7672 C   0  0  0  0  0  0  0  0  0  0  0  0
    1.5006    5.1158   18.4280 C   0  0  0  0  0  0  0  0  0  0  0  0
    2.8680    5.3925   18.1526 C   0  0  0  0  0  0  0  0  0  0  0  0
    3.7586    5.7044   19.2152 C   0  0  0  0  0  0  0  0  0  0  0  0
    3.2809    5.7284   20.5628 C   0  0  0  0  0  0  0  0  0  0  0  0
    1.9283    5.4554   20.8372 C   0  0  0  0  0  0  0  0  0  0  0  0
  1  6  1  0  0  0  0
  2  4  1  0  0  0  0
  3  7  1  0  0  0  0
  4  5  1  0  0  0  0
  6  2  1  0  0  0  0
  7  8  1  0  0  0  0
  8  9  1  0  0  0  0
  9 10  1  0  0  0  0
 10 11  1  0  0  0  0
 10 12  1  0  0  0  0
 11 13  1  0  0  0  0
 13 15  1  0  0  0  0
 14 12  1  0  0  0  0
 15 14  1  0  0  0  0
 16 18  2  0  0  0  0
 16 22  1  0  0  0  0
 17 23  1  0  0  0  0
 17 29  1  0  0  0  0
 18 19  1  0  0  0  0
 18 26  1  0  0  0  0
 19 20  2  0  0  0  0
 20  3  1  0  0  0  0
 20 21  1  0  0  0  0
 21  5  1  0  0  0  0
 21 22  2  0  0  0  0
 23 24  2  0  0  0  0
 24 30  1  0  0  0  0
 25 26  2  0  0  0  0
 25 30  1  0  0  0  0
 26 27  1  0  0  0  0
 27 28  2  0  0  0  0
 28 29  1  0  0  0  0
 29 30  2  0  0  0  0
M  END
>  <CHROM.1>
176.38266681,-178.75928380,-163.65351856,-177.96062755,84.34107968,174.52393086
-177.56723641,-72.74251972,-160.86941807,-148.03707223,123.76145358,-2.19973737
4.43701948,16.25304866,-2.59092802,0.17480462,1.52700399

>  <Name>
1uts_lig

>  <RI>
0

>  <Rbt.Current_Directory>
/home/itssahil/PROJECTS/Mol_Feturizer/New_Systems/rnas/1uts

>  <Rbt.Executable>
rbdock ($Id: //depot/dev/client3/rdock/2013.1/src/exe/rbdock.cxx#4 $)

>  <Rbt.Library>
libRbt.so (2013.1, Build901 2013/11/27)

>  <Rbt.Parameter_File>
/export/apps/rDock/src/rDock_2013.1_src/data/scripts/dock_solv.prm

>  <Rbt.Receptor>
prm/pocket_docking_5.prm

>  <SCORE>
-38.871

>  <SCORE.INTER>
-33.1545

>  <SCORE.INTER.CONST>
1

>  <SCORE.INTER.POLAR>
-1.93808

>  <SCORE.INTER.ROT>
10

>  <SCORE.INTER.SOLV>
8.41737

>  <SCORE.INTER.VDW>
-28.7152

>  <SCORE.INTER.norm>
-1.10515

>  <SCORE.INTRA>
-5.71647

>  <SCORE.INTRA.DIHEDRAL>
-10.347

>  <SCORE.INTRA.DIHEDRAL.0>
18.0451

>  <SCORE.INTRA.POLAR>
-0.62996

>  <SCORE.INTRA.POLAR.0>
-0.196815

>  <SCORE.INTRA.REPUL>
0

>  <SCORE.INTRA.REPUL.0>
0

>  <SCORE.INTRA.SOLV>
-0.182882

>  <SCORE.INTRA.SOLV.lig_0>
-14.7906

>  <SCORE.INTRA.VDW>
1.69033

>  <SCORE.INTRA.VDW.0>
-0.411701

>  <SCORE.INTRA.norm>
-0.190549

>  <SCORE.RESTR>
0

>  <SCORE.RESTR.CAVITY>
0

>  <SCORE.RESTR.norm>
0

>  <SCORE.SYSTEM>
0

>  <SCORE.SYSTEM.CONST>
0

>  <SCORE.SYSTEM.DIHEDRAL>
0

>  <SCORE.SYSTEM.SOLV>
0

>  <SCORE.SYSTEM.norm>
0

>  <SCORE.heavy>
30

>  <SCORE.norm>
-1.2957

>  <RMSD>
10.230

$$$$
1uts_lig
 OpenBabel11021811413D
libRbt.so/2013.1/901 2013/11/27
 30 33  0  0  0  0  0  0  0  0999 V2000
   -8.7965    2.6384   12.6315 N   0  0  0  0  0  0  0  0  0  0  0  0
   -7.4521    3.0864   14.6387 C   0  0  0  0  0  0  0  0  0  0  0  0
   -2.3902    3.6675   13.2474 C   0  0  0  0  0  0  0  0  0  0  0  0
   -6.3641    3.6190   13.7017 C   0  0  0  0  0  0  0  0  0  0  0  0
   -5.1508    2.8823   13.9137 O   0  0  0  0  0  0  0  0  0  0  0  0
   -8.8220    3.2522   13.9783 C   0  0  0  0  0  0  0  0  0  0  0  0
   -1.9869    4.9517   12.6308 N   0  0  0  0  0  0  0  0  0  0  0  0
   -1.9048    4.7946   11.1545 C   0  0  0  0  0  0  0  0  0  0  0  0
   -1.5167    6.1297   10.5124 C   0  0  0  0  0  0  0  0  0  0  0  0
   -1.4679    5.9731    9.0413 N   0  0  0  0  0  0  0  0  0  0  0  0
   -0.4423    4.9494    8.6889 C   0  0  0  0  0  0  0  0  0  0  0  0
   -1.1315    7.2832    8.4157 C   0  0  0  0  0  0  0  0  0  0  0  0
   -0.3861    4.7868    7.1613 C   0  0  0  0  0  0  0  0  0  0  0  0
   -1.0712    7.1207    6.8862 C   0  0  0  0  0  0  0  0  0  0  0  0
   -0.0485    6.0965    6.5351 N   0  0  0  0  0  0  0  0  0  0  0  0
   -4.1070    4.3717   17.2188 C   0  0  0  0  0  0  0  0  0  0  0  0
    0.5115    7.1577   20.8238 N   0  0  0  0  0  0  0  0  0  0  0  0
   -2.7703    4.7478   16.9444 C   0  0  0  0  0  0  0  0  0  0  0  0
   -2.2201    4.5164   15.6556 C   0  0  0  0  0  0  0  0  0  0  0  0
   -3.0086    3.9109   14.6389 C   0  0  0  0  0  0  0  0  0  0  0  0
   -4.3510    3.5175   14.9226 C   0  0  0  0  0  0  0  0  0  0  0  0
   -4.8974    3.7545   16.2136 C   0  0  0  0  0  0  0  0  0  0  0  0
    1.7227    7.0829   20.0992 C   0  0  0  0  0  0  0  0  0  0  0  0
    1.5250    6.4559   18.8481 C   0  0  0  0  0  0  0  0  0  0  0  0
   -0.6012    5.5236   17.7645 C   0  0  0  0  0  0  0  0  0  0  0  0
   -1.9986    5.3430   17.9523 C   0  0  0  0  0  0  0  0  0  0  0  0
   -2.6129    5.7732   19.1604 C   0  0  0  0  0  0  0  0  0  0  0  0
   -1.8311    6.3848   20.1774 C   0  0  0  0  0  0  0  0  0  0  0  0
   -0.4279    6.5776   19.9799 C   0  0  0  0  0  0  0  0  0  0  0  0
    0.1817    6.1521   18.7855 C   0  0  0  0  0  0  0  0  0  0  0  0
  1  6  1  0  0  0  0
  2  4  1  0  0  0  0
  3  7  1  0  0  0  0
  4  5  1  0  0  0  0
  6  2  1  0  0  0  0
  7  8  1  0  0  0  0
  8  9  1  0  0  0  0
  9 10  1  0  0  0  0
 10 11  1  0  0  0  0
 10 12  1  0  0  0  0
 11 13  1  0  0  0  0
 13 15  1  0  0  0  0
 14 12  1  0  0  0  0
 15 14  1  0  0  0  0
 16 18  2  0  0  0  0
 16 22  1  0  0  0  0
 17 23  1  0  0  0  0
 17 29  1  0  0  0  0
 18 19  1  0  0  0  0
 18 26  1  0  0  0  0
 19 20  2  0  0  0  0
 20  3  1  0  0  0  0
 20 21  1  0  0  0  0
 21  5  1  0  0  0  0
 21 22  2  0  0  0  0
 23 24  2  0  0  0  0
 24 30  1  0  0  0  0
 25 26  2  0  0  0  0
 25 30  1  0  0  0  0
 26 27  1  0  0  0  0
 27 28  2  0  0  0  0
 28 29  1  0  0  0  0
 29 30  2  0  0  0  0
M  END
>  <CHROM.1>
44.59138808,-149.43066875,-157.84835840,-90.28288956,52.92359619,178.80367209
-178.68664082,-60.75085282,169.65661421,-61.23160159,-123.67184271,-2.52389241
5.06183665,14.19471028,1.65106325,-0.42621568,-1.58167871

>  <Name>
1uts_lig

>  <RI>
0

>  <Rbt.Current_Directory>
/home/itssahil/PROJECTS/Mol_Feturizer/New_Systems/rnas/1uts

>  <Rbt.Executable>
rbdock ($Id: //depot/dev/client3/rdock/2013.1/src/exe/rbdock.cxx#4 $)

>  <Rbt.Library>
libRbt.so (2013.1, Build901 2013/11/27)

>  <Rbt.Parameter_File>
/export/apps/rDock/src/rDock_2013.1_src/data/scripts/dock_solv.prm

>  <Rbt.Receptor>
prm/pocket_docking_7.prm

>  <SCORE>
-46.3449

>  <SCORE.INTER>
-47.8878

>  <SCORE.INTER.CONST>
1

>  <SCORE.INTER.POLAR>
-3.85555

>  <SCORE.INTER.ROT>
10

>  <SCORE.INTER.SOLV>
10.3679

>  <SCORE.INTER.VDW>
-32.796

>  <SCORE.INTER.norm>
-1.59626

>  <SCORE.INTRA>
1.54296

>  <SCORE.INTRA.DIHEDRAL>
-5.51624

>  <SCORE.INTRA.DIHEDRAL.0>
18.0451

>  <SCORE.INTRA.POLAR>
0.196815

>  <SCORE.INTRA.POLAR.0>
-0.196815

>  <SCORE.INTRA.REPUL>
0

>  <SCORE.INTRA.REPUL.0>
0

>  <SCORE.INTRA.SOLV>
-0.450305

>  <SCORE.INTRA.SOLV.lig_0>
-14.7906

>  <SCORE.INTRA.VDW>
3.85706

>  <SCORE.INTRA.VDW.0>
-0.411701

>  <SCORE.INTRA.norm>
0.0514319

>  <SCORE.RESTR>
0

>  <SCORE.RESTR.CAVITY>
0

>  <SCORE.RESTR.norm>
0

>  <SCORE.SYSTEM>
0

>  <SCORE.SYSTEM.CONST>
0

>  <SCORE.SYSTEM.DIHEDRAL>
0

>  <SCORE.SYSTEM.SOLV>
0

>  <SCORE.SYSTEM.norm>
0

>  <SCORE.heavy>
30

>  <SCORE.norm>
-1.54483

>  <RMSD>
10.230

$$$$
1uts_lig
 OpenBabel11021811413D
libRbt.so/2013.1/901 2013/11/27
 30 33  0  0  0  0  0  0  0  0999 V2000
   -3.4307    1.5326   15.8605 N   0  0  0  0  0  0  0  0  0  0  0  0
   -5.1746    2.7329   17.1075 C   0  0  0  0  0  0  0  0  0  0  0  0
   -2.1013    4.0539   13.5253 C   0  0  0  0  0  0  0  0  0  0  0  0
   -4.8010    4.2072   16.9281 C   0  0  0  0  0  0  0  0  0  0  0  0
   -4.0446    4.3629   15.7183 O   0  0  0  0  0  0  0  0  0  0  0  0
   -3.9013    1.8922   17.2172 C   0  0  0  0  0  0  0  0  0  0  0  0
   -2.1080    5.3120   12.7448 N   0  0  0  0  0  0  0  0  0  0  0  0
   -2.5649    5.0378   11.3566 C   0  0  0  0  0  0  0  0  0  0  0  0
   -2.8183    6.3588   10.6244 C   0  0  0  0  0  0  0  0  0  0  0  0
   -4.0474    6.2416    9.8080 N   0  0  0  0  0  0  0  0  0  0  0  0
   -3.6947    5.7077    8.4610 C   0  0  0  0  0  0  0  0  0  0  0  0
   -4.6885    7.5813    9.6849 C   0  0  0  0  0  0  0  0  0  0  0  0
   -4.9685    5.5882    7.6087 C   0  0  0  0  0  0  0  0  0  0  0  0
   -5.9622    7.4635    8.8286 C   0  0  0  0  0  0  0  0  0  0  0  0
   -5.6095    6.9280    7.4843 N   0  0  0  0  0  0  0  0  0  0  0  0
   -0.8381    4.8242   17.6516 C   0  0  0  0  0  0  0  0  0  0  0  0
    5.6459    5.0114   17.6594 N   0  0  0  0  0  0  0  0  0  0  0  0
    0.1280    4.6641   16.6298 C   0  0  0  0  0  0  0  0  0  0  0  0
   -0.2881    4.4142   15.2949 C   0  0  0  0  0  0  0  0  0  0  0  0
   -1.6723    4.3275   14.9810 C   0  0  0  0  0  0  0  0  0  0  0  0
   -2.6444    4.4730   16.0158 C   0  0  0  0  0  0  0  0  0  0  0  0
   -2.2221    4.7260   17.3497 C   0  0  0  0  0  0  0  0  0  0  0  0
    6.0862    4.7584   16.3403 C   0  0  0  0  0  0  0  0  0  0  0  0
    4.9905    4.5328   15.4765 C   0  0  0  0  0  0  0  0  0  0  0  0
    2.4701    4.5509   15.9360 C   0  0  0  0  0  0  0  0  0  0  0  0
    1.4910    4.7494   16.9471 C   0  0  0  0  0  0  0  0  0  0  0  0
    1.8961    5.0414   18.2786 C   0  0  0  0  0  0  0  0  0  0  0  0
    3.2778    5.1368   18.5969 C   0  0  0  0  0  0  0  0  0  0  0  0
    4.2602    4.9503   17.5746 C   0  0  0  0  0  0  0  0  0  0  0  0
    3.8613    4.6608   16.2569 C   0  0  0  0  0  0  0  0  0  0  0  0
  1  6  1  0  0  0  0
  2  4  1  0  0  0  0
  3  7  1  0  0  0  0
  4  5  1  0  0  0  0
  6  2  1  0  0  0  0
  7  8  1  0  0  0  0
  8  9  1  0  0  0  0
  9 10  1  0  0  0  0
 10 11  1  0  0  0  0
 10 12  1  0  0  0  0
 11 13  1  0  0  0  0
 13 15  1  0  0  0  0
 14 12  1  0  0  0  0
 15 14  1  0  0  0  0
 16 18  2  0  0  0  0
 16 22  1  0  0  0  0
 17 23  1  0  0  0  0
 17 29  1  0  0  0  0
 18 19  1  0  0  0  0
 18 26  1  0  0  0  0
 19 20  2  0  0  0  0
 20  3  1  0  0  0  0
 20 21  1  0  0  0  0
 21  5  1  0  0  0  0
 21 22  2  0  0  0  0
 23 24  2  0  0  0  0
 24 30  1  0  0  0  0
 25 26  2  0  0  0  0
 25 30  1  0  0  0  0
 26 27  1  0  0  0  0
 27 28  2  0  0  0  0
 28 29  1  0  0  0  0
 29 30  2  0  0  0  0
M  END
>  <CHROM.1>
-80.56275404,61.11124144,-178.21404490,-101.22804051,-85.98413638,169.71623941
-139.23566020,-88.33081074,178.14026381,-82.85203103,165.55454449,-1.28218960
4.86095811,14.33072629,0.77104485,0.17824417,1.94577610

>  <Name>
1uts_lig

>  <RI>
0

>  <Rbt.Current_Directory>
/home/itssahil/PROJECTS/Mol_Feturizer/New_Systems/rnas/1uts

>  <Rbt.Executable>
rbdock ($Id: //depot/dev/client3/rdock/2013.1/src/exe/rbdock.cxx#4 $)

>  <Rbt.Library>
libRbt.so (2013.1, Build901 2013/11/27)

>  <Rbt.Parameter_File>
/export/apps/rDock/src/rDock_2013.1_src/data/scripts/dock_solv.prm

>  <Rbt.Receptor>
prm/pocket_docking_8.prm

>  <SCORE>
-29.0661

>  <SCORE.INTER>
-32.1034

>  <SCORE.INTER.CONST>
1

>  <SCORE.INTER.POLAR>
-1.97806

>  <SCORE.INTER.ROT>
10

>  <SCORE.INTER.SOLV>
7.23174

>  <SCORE.INTER.VDW>
-27.486

>  <SCORE.INTER.norm>
-1.07011

>  <SCORE.INTRA>
3.03727

>  <SCORE.INTRA.DIHEDRAL>
-2.12369

>  <SCORE.INTRA.DIHEDRAL.0>
18.0451

>  <SCORE.INTRA.POLAR>
-0.0254651

>  <SCORE.INTRA.POLAR.0>
-0.196815

>  <SCORE.INTRA.REPUL>
0

>  <SCORE.INTRA.REPUL.0>
0

>  <SCORE.INTRA.SOLV>
0.241291

>  <SCORE.INTRA.SOLV.lig_0>
-14.7906

>  <SCORE.INTRA.VDW>
4.06505

>  <SCORE.INTRA.VDW.0>
-0.411701

>  <SCORE.INTRA.norm>
0.101242

>  <SCORE.RESTR>
0

>  <SCORE.RESTR.CAVITY>
0

>  <SCORE.RESTR.norm>
0

>  <SCORE.SYSTEM>
0

>  <SCORE.SYSTEM.CONST>
0

>  <SCORE.SYSTEM.DIHEDRAL>
0

>  <SCORE.SYSTEM.SOLV>
0

>  <SCORE.SYSTEM.norm>
0

>  <SCORE.heavy>
30

>  <SCORE.norm>
-0.96887

>  <RMSD>
10.233

$$$$
1uts_lig
 OpenBabel11021811413D
libRbt.so/2013.1/901 2013/11/27
 30 33  0  0  0  0  0  0  0  0999 V2000
   -9.2513    3.2946   13.1560 N   0  0  0  0  0  0  0  0  0  0  0  0
   -7.3055    3.4685   14.6462 C   0  0  0  0  0  0  0  0  0  0  0  0
   -3.4942    3.6789   13.4877 C   0  0  0  0  0  0  0  0  0  0  0  0
   -6.1732    2.6679   15.2960 C   0  0  0  0  0  0  0  0  0  0  0  0
   -5.2205    3.5729   15.8731 O   0  0  0  0  0  0  0  0  0  0  0  0
   -8.2659    2.5126   13.9362 C   0  0  0  0  0  0  0  0  0  0  0  0
   -2.4564    4.6343   13.0381 N   0  0  0  0  0  0  0  0  0  0  0  0
   -1.8063    4.1228   11.8025 C   0  0  0  0  0  0  0  0  0  0  0  0
   -1.3594    5.2979   10.9279 C   0  0  0  0  0  0  0  0  0  0  0  0
   -2.5366    5.8784   10.2437 N   0  0  0  0  0  0  0  0  0  0  0  0
   -2.2738    5.9378    8.7770 C   0  0  0  0  0  0  0  0  0  0  0  0
   -2.7971    7.2437   10.7812 C   0  0  0  0  0  0  0  0  0  0  0  0
   -3.4931    6.5439    8.0633 C   0  0  0  0  0  0  0  0  0  0  0  0
   -4.0156    7.8531   10.0646 C   0  0  0  0  0  0  0  0  0  0  0  0
   -3.7534    7.9099    8.5996 N   0  0  0  0  0  0  0  0  0  0  0  0
   -2.2191    1.7028   17.1869 C   0  0  0  0  0  0  0  0  0  0  0  0
    3.7240   -0.6299   16.5124 N   0  0  0  0  0  0  0  0  0  0  0  0
   -1.3669    1.7160   16.0570 C   0  0  0  0  0  0  0  0  0  0  0  0
   -1.7864    2.3577   14.8613 C   0  0  0  0  0  0  0  0  0  0  0  0
   -3.0586    2.9896   14.7966 C   0  0  0  0  0  0  0  0  0  0  0  0
   -3.9231    2.9610   15.9319 C   0  0  0  0  0  0  0  0  0  0  0  0
   -3.4965    2.3198   17.1271 C   0  0  0  0  0  0  0  0  0  0  0  0
    4.3274    0.4056   17.2615 C   0  0  0  0  0  0  0  0  0  0  0  0
    3.4162    1.4620   17.4884 C   0  0  0  0  0  0  0  0  0  0  0  0
    0.9627    1.7280   16.8004 C   0  0  0  0  0  0  0  0  0  0  0  0
   -0.1146    1.0896   16.1278 C   0  0  0  0  0  0  0  0  0  0  0  0
    0.0782   -0.1878   15.5334 C   0  0  0  0  0  0  0  0  0  0  0  0
    1.3455   -0.8258   15.6139 C   0  0  0  0  0  0  0  0  0  0  0  0
    2.4234   -0.1872   16.3032 C   0  0  0  0  0  0  0  0  0  0  0  0
    2.2347    1.0769   16.8914 C   0  0  0  0  0  0  0  0  0  0  0  0
  1  6  1  0  0  0  0
  2  4  1  0  0  0  0
  3  7  1  0  0  0  0
  4  5  1  0  0  0  0
  6  2  1  0  0  0  0
  7  8  1  0  0  0  0
  8  9  1  0  0  0  0
  9 10  1  0  0  0  0
 10 11  1  0  0  0  0
 10 12  1  0  0  0  0
 11 13  1  0  0  0  0
 13 15  1  0  0  0  0
 14 12  1  0  0  0  0
 15 14  1  0  0  0  0
 16 18  2  0  0  0  0
 16 22  1  0  0  0  0
 17 23  1  0  0  0  0
 17 29  1  0  0  0  0
 18 19  1  0  0  0  0
 18 26  1  0  0  0  0
 19 20  2  0  0  0  0
 20  3  1  0  0  0  0
 20 21  1  0  0  0  0
 21  5  1  0  0  0  0
 21 22  2  0  0  0  0
 23 24  2  0  0  0  0
 24 30  1  0  0  0  0
 25 26  2  0  0  0  0
 25 30  1  0  0  0  0
 26 27  1  0  0  0  0
 27 28  2  0  0  0  0
 28 29  1  0  0  0  0
 29 30  2  0  0  0  0
M  END
>  <CHROM.1>
-177.48159637,175.62878582,110.61168607,-153.70882462,-172.30573806,148.96146434
-76.24227732,-126.84697746,-77.42743344,-52.52933703,84.24524437,-2.21084395
3.20377674,13.96768590,2.27643347,0.09809804,-0.91715215

>  <Name>
1uts_lig

>  <RI>
0

>  <Rbt.Current_Directory>
/home/itssahil/PROJECTS/Mol_Feturizer/New_Systems/rnas/1uts

>  <Rbt.Executable>
rbdock ($Id: //depot/dev/client3/rdock/2013.1/src/exe/rbdock.cxx#4 $)

>  <Rbt.Library>
libRbt.so (2013.1, Build901 2013/11/27)

>  <Rbt.Parameter_File>
/export/apps/rDock/src/rDock_2013.1_src/data/scripts/dock_solv.prm

>  <Rbt.Receptor>
prm/pocket_docking_6.prm

>  <SCORE>
-33.2485

>  <SCORE.INTER>
-35.2871

>  <SCORE.INTER.CONST>
1

>  <SCORE.INTER.POLAR>
-2.05484

>  <SCORE.INTER.ROT>
10

>  <SCORE.INTER.SOLV>
11.0164

>  <SCORE.INTER.VDW>
-30.6141

>  <SCORE.INTER.norm>
-1.17624

>  <SCORE.INTRA>
2.0386

>  <SCORE.INTRA.DIHEDRAL>
4.90103

>  <SCORE.INTRA.DIHEDRAL.0>
18.0451

>  <SCORE.INTRA.POLAR>
0.196815

>  <SCORE.INTRA.POLAR.0>
-0.196815

>  <SCORE.INTRA.REPUL>
0

>  <SCORE.INTRA.REPUL.0>
0

>  <SCORE.INTRA.SOLV>
-0.45276

>  <SCORE.INTRA.SOLV.lig_0>
-14.7906

>  <SCORE.INTRA.VDW>
-0.854704

>  <SCORE.INTRA.VDW.0>
-0.411701

>  <SCORE.INTRA.norm>
0.0679534

>  <SCORE.RESTR>
0

>  <SCORE.RESTR.CAVITY>
0

>  <SCORE.RESTR.norm>
0

>  <SCORE.SYSTEM>
0

>  <SCORE.SYSTEM.CONST>
0

>  <SCORE.SYSTEM.DIHEDRAL>
0

>  <SCORE.SYSTEM.SOLV>
0

>  <SCORE.SYSTEM.norm>
0

>  <SCORE.heavy>
30

>  <SCORE.norm>
-1.10828

>  <RMSD>
10.251

$$$$
1uts_lig
 OpenBabel11021811413D
libRbt.so/2013.1/901 2013/11/27
 30 33  0  0  0  0  0  0  0  0999 V2000
  -10.1502    2.3849   13.6498 N   0  0  0  0  0  0  0  0  0  0  0  0
   -7.7580    2.9393   13.7332 C   0  0  0  0  0  0  0  0  0  0  0  0
   -2.7556    4.1061   13.1301 C   0  0  0  0  0  0  0  0  0  0  0  0
   -6.7146    3.7412   14.5164 C   0  0  0  0  0  0  0  0  0  0  0  0
   -5.3997    3.2988   14.1489 O   0  0  0  0  0  0  0  0  0  0  0  0
   -9.1615    3.3491   14.1830 C   0  0  0  0  0  0  0  0  0  0  0  0
   -2.0777    5.3466   12.6899 N   0  0  0  0  0  0  0  0  0  0  0  0
   -2.1410    5.4531   11.2081 C   0  0  0  0  0  0  0  0  0  0  0  0
   -1.4108    4.2667   10.5720 C   0  0  0  0  0  0  0  0  0  0  0  0
   -1.3786    4.4387    9.1022 N   0  0  0  0  0  0  0  0  0  0  0  0
   -0.6893    5.7191    8.7713 C   0  0  0  0  0  0  0  0  0  0  0  0
   -2.7724    4.4471    8.5750 C   0  0  0  0  0  0  0  0  0  0  0  0
   -0.6574    5.9031    7.2454 C   0  0  0  0  0  0  0  0  0  0  0  0
   -2.7418    4.6350    7.0475 C   0  0  0  0  0  0  0  0  0  0  0  0
   -2.0512    5.9128    6.7177 N   0  0  0  0  0  0  0  0  0  0  0  0
   -3.7871    4.3866   17.3812 C   0  0  0  0  0  0  0  0  0  0  0  0
    1.4611    6.6138   20.4754 N   0  0  0  0  0  0  0  0  0  0  0  0
   -2.4992    4.7680   16.9348 C   0  0  0  0  0  0  0  0  0  0  0  0
   -2.1714    4.6741   15.5559 C   0  0  0  0  0  0  0  0  0  0  0  0
   -3.1338    4.2013   14.6220 C   0  0  0  0  0  0  0  0  0  0  0  0
   -4.4264    3.8019   15.0766 C   0  0  0  0  0  0  0  0  0  0  0  0
   -4.7500    3.9009   16.4576 C   0  0  0  0  0  0  0  0  0  0  0  0
    2.5775    6.3057   19.6651 C   0  0  0  0  0  0  0  0  0  0  0  0
    2.1712    5.7014   18.4538 C   0  0  0  0  0  0  0  0  0  0  0  0
   -0.1676    5.1513   17.5640 C   0  0  0  0  0  0  0  0  0  0  0  0
   -1.5552    5.2318   17.8616 C   0  0  0  0  0  0  0  0  0  0  0  0
   -1.9838    5.7898   19.0974 C   0  0  0  0  0  0  0  0  0  0  0  0
   -1.0262    6.2681   20.0322 C   0  0  0  0  0  0  0  0  0  0  0  0
    0.3685    6.1984   19.7239 C   0  0  0  0  0  0  0  0  0  0  0  0
    0.7945    5.6462   18.5020 C   0  0  0  0  0  0  0  0  0  0  0  0
  1  6  1  0  0  0  0
  2  4  1  0  0  0  0
  3  7  1  0  0  0  0
  4  5  1  0  0  0  0
  6  2  1  0  0  0  0
  7  8  1  0  0  0  0
  8  9  1  0  0  0  0
  9 10  1  0  0  0  0
 10 11  1  0  0  0  0
 10 12  1  0  0  0  0
 11 13  1  0  0  0  0
 13 15  1  0  0  0  0
 14 12  1  0  0  0  0
 15 14  1  0  0  0  0
 16 18  2  0  0  0  0
 16 22  1  0  0  0  0
 17 23  1  0  0  0  0
 17 29  1  0  0  0  0
 18 19  1  0  0  0  0
 18 26  1  0  0  0  0
 19 20  2  0  0  0  0
 20  3  1  0  0  0  0
 20 21  1  0  0  0  0
 21  5  1  0  0  0  0
 21 22  2  0  0  0  0
 23 24  2  0  0  0  0
 24 30  1  0  0  0  0
 25 26  2  0  0  0  0
 25 30  1  0  0  0  0
 26 27  1  0  0  0  0
 27 28  2  0  0  0  0
 28 29  1  0  0  0  0
 29 30  2  0  0  0  0
M  END
>  <CHROM.1>
57.14278183,176.63499802,-160.49627208,-166.63768399,-167.91760792,-61.62050909
-175.24924242,58.69621522,156.79283654,-46.37067681,-143.38938780,-2.63623040
4.79373817,14.22284158,1.91595276,-0.31559786,-1.57663285

>  <Name>
1uts_lig

>  <RI>
0

>  <Rbt.Current_Directory>
/home/itssahil/PROJECTS/Mol_Feturizer/New_Systems/rnas/1uts

>  <Rbt.Executable>
rbdock ($Id: //depot/dev/client3/rdock/2013.1/src/exe/rbdock.cxx#4 $)

>  <Rbt.Library>
libRbt.so (2013.1, Build901 2013/11/27)

>  <Rbt.Parameter_File>
/export/apps/rDock/src/rDock_2013.1_src/data/scripts/dock_solv.prm

>  <Rbt.Receptor>
prm/pocket_docking_7.prm

>  <SCORE>
-39.9031

>  <SCORE.INTER>
-41.3071

>  <SCORE.INTER.CONST>
1

>  <SCORE.INTER.POLAR>
-2.88299

>  <SCORE.INTER.ROT>
10

>  <SCORE.INTER.SOLV>
9.3676

>  <SCORE.INTER.VDW>
-31.3173

>  <SCORE.INTER.norm>
-1.3769

>  <SCORE.INTRA>
1.40397

>  <SCORE.INTRA.DIHEDRAL>
-12.4596

>  <SCORE.INTRA.DIHEDRAL.0>
18.0451

>  <SCORE.INTRA.POLAR>
0.196815

>  <SCORE.INTRA.POLAR.0>
-0.196815

>  <SCORE.INTRA.REPUL>
0

>  <SCORE.INTRA.REPUL.0>
0

>  <SCORE.INTRA.SOLV>
-0.6238

>  <SCORE.INTRA.SOLV.lig_0>
-14.7906

>  <SCORE.INTRA.VDW>
7.27648

>  <SCORE.INTRA.VDW.0>
-0.411701

>  <SCORE.INTRA.norm>
0.046799

>  <SCORE.RESTR>
0

>  <SCORE.RESTR.CAVITY>
0

>  <SCORE.RESTR.norm>
0

>  <SCORE.SYSTEM>
0

>  <SCORE.SYSTEM.CONST>
0

>  <SCORE.SYSTEM.DIHEDRAL>
0

>  <SCORE.SYSTEM.SOLV>
0

>  <SCORE.SYSTEM.norm>
0

>  <SCORE.heavy>
30

>  <SCORE.norm>
-1.3301

>  <RMSD>
10.253

$$$$
1uts_lig
 OpenBabel11021811413D
libRbt.so/2013.1/901 2013/11/27
 30 33  0  0  0  0  0  0  0  0999 V2000
   -9.1552    3.1209   13.1790 N   0  0  0  0  0  0  0  0  0  0  0  0
   -7.5280    3.3176   15.0094 C   0  0  0  0  0  0  0  0  0  0  0  0
   -2.5296    3.8991   13.2325 C   0  0  0  0  0  0  0  0  0  0  0  0
   -6.2607    2.6616   14.4536 C   0  0  0  0  0  0  0  0  0  0  0  0
   -5.3768    3.6777   13.9578 O   0  0  0  0  0  0  0  0  0  0  0  0
   -8.7592    2.5697   14.4946 C   0  0  0  0  0  0  0  0  0  0  0  0
   -2.0884    5.1597   12.5934 N   0  0  0  0  0  0  0  0  0  0  0  0
   -2.1231    5.0103   11.1144 C   0  0  0  0  0  0  0  0  0  0  0  0
   -1.5630    6.2731   10.4531 C   0  0  0  0  0  0  0  0  0  0  0  0
   -1.5010    6.0755    8.9875 N   0  0  0  0  0  0  0  0  0  0  0  0
   -0.5571    4.9626    8.6802 C   0  0  0  0  0  0  0  0  0  0  0  0
   -1.0466    7.3372    8.3376 C   0  0  0  0  0  0  0  0  0  0  0  0
   -0.4872    4.7569    7.1584 C   0  0  0  0  0  0  0  0  0  0  0  0
   -0.9726    7.1314    6.8139 C   0  0  0  0  0  0  0  0  0  0  0  0
   -0.0316    6.0182    6.5079 N   0  0  0  0  0  0  0  0  0  0  0  0
   -3.9525    4.6789   17.3045 C   0  0  0  0  0  0  0  0  0  0  0  0
    1.2410    6.1941   20.8836 N   0  0  0  0  0  0  0  0  0  0  0  0
   -2.5737    4.7788   17.0013 C   0  0  0  0  0  0  0  0  0  0  0  0
   -2.1193    4.5243   15.6798 C   0  0  0  0  0  0  0  0  0  0  0  0
   -3.0454    4.1726   14.6598 C   0  0  0  0  0  0  0  0  0  0  0  0
   -4.4334    4.0566   14.9715 C   0  0  0  0  0  0  0  0  0  0  0  0
   -4.8828    4.3155   16.2953 C   0  0  0  0  0  0  0  0  0  0  0  0
    2.3793    6.1072   20.0503 C   0  0  0  0  0  0  0  0  0  0  0  0
    2.0191    5.7080   18.7431 C   0  0  0  0  0  0  0  0  0  0  0  0
   -0.2748    5.1849   17.7290 C   0  0  0  0  0  0  0  0  0  0  0  0
   -1.6663    5.1246   18.0125 C   0  0  0  0  0  0  0  0  0  0  0  0
   -2.1366    5.4223   19.3211 C   0  0  0  0  0  0  0  0  0  0  0  0
   -1.2167    5.7817   20.3430 C   0  0  0  0  0  0  0  0  0  0  0  0
    0.1813    5.8550   20.0510 C   0  0  0  0  0  0  0  0  0  0  0  0
    0.6485    5.5603   18.7571 C   0  0  0  0  0  0  0  0  0  0  0  0
  1  6  1  0  0  0  0
  2  4  1  0  0  0  0
  3  7  1  0  0  0  0
  4  5  1  0  0  0  0
  6  2  1  0  0  0  0
  7  8  1  0  0  0  0
  8  9  1  0  0  0  0
  9 10  1  0  0  0  0
 10 11  1  0  0  0  0
 10 12  1  0  0  0  0
 11 13  1  0  0  0  0
 13 15  1  0  0  0  0
 14 12  1  0  0  0  0
 15 14  1  0  0  0  0
 16 18  2  0  0  0  0
 16 22  1  0  0  0  0
 17 23  1  0  0  0  0
 17 29  1  0  0  0  0
 18 19  1  0  0  0  0
 18 26  1  0  0  0  0
 19 20  2  0  0  0  0
 20  3  1  0  0  0  0
 20 21  1  0  0  0  0
 21  5  1  0  0  0  0
 21 22  2  0  0  0  0
 23 24  2  0  0  0  0
 24 30  1  0  0  0  0
 25 26  2  0  0  0  0
 25 30  1  0  0  0  0
 26 27  1  0  0  0  0
 27 28  2  0  0  0  0
 28 29  1  0  0  0  0
 29 30  2  0  0  0  0
M  END
>  <CHROM.1>
161.37277632,133.73714580,-157.14899866,93.83219430,-86.59364286,-175.56830365
175.55753486,-62.95387203,177.94265914,-71.02636111,133.44174778,-2.40425199
4.97350905,14.28046647,1.67777649,-0.34512772,-1.51387652

>  <Name>
1uts_lig

>  <RI>
0

>  <Rbt.Current_Directory>
/home/itssahil/PROJECTS/Mol_Feturizer/New_Systems/rnas/1uts

>  <Rbt.Executable>
rbdock ($Id: //depot/dev/client3/rdock/2013.1/src/exe/rbdock.cxx#4 $)

>  <Rbt.Library>
libRbt.so (2013.1, Build901 2013/11/27)

>  <Rbt.Parameter_File>
/export/apps/rDock/src/rDock_2013.1_src/data/scripts/dock_solv.prm

>  <Rbt.Receptor>
prm/pocket_docking_7.prm

>  <SCORE>
-43.1006

>  <SCORE.INTER>
-46.5513

>  <SCORE.INTER.CONST>
1

>  <SCORE.INTER.POLAR>
-3.68103

>  <SCORE.INTER.ROT>
10

>  <SCORE.INTER.SOLV>
9.99058

>  <SCORE.INTER.VDW>
-32.361

>  <SCORE.INTER.norm>
-1.55171

>  <SCORE.INTRA>
3.45073

>  <SCORE.INTRA.DIHEDRAL>
-1.30064

>  <SCORE.INTRA.DIHEDRAL.0>
18.0451

>  <SCORE.INTRA.POLAR>
0.196815

>  <SCORE.INTRA.POLAR.0>
-0.196815

>  <SCORE.INTRA.REPUL>
0

>  <SCORE.INTRA.REPUL.0>
0

>  <SCORE.INTRA.SOLV>
-0.469533

>  <SCORE.INTRA.SOLV.lig_0>
-14.7906

>  <SCORE.INTRA.VDW>
3.66664

>  <SCORE.INTRA.VDW.0>
-0.411701

>  <SCORE.INTRA.norm>
0.115024

>  <SCORE.RESTR>
0

>  <SCORE.RESTR.CAVITY>
0

>  <SCORE.RESTR.norm>
0

>  <SCORE.SYSTEM>
0

>  <SCORE.SYSTEM.CONST>
0

>  <SCORE.SYSTEM.DIHEDRAL>
0

>  <SCORE.SYSTEM.SOLV>
0

>  <SCORE.SYSTEM.norm>
0

>  <SCORE.heavy>
30

>  <SCORE.norm>
-1.43669

>  <RMSD>
10.259

$$$$
1uts_lig
 OpenBabel11021811413D
libRbt.so/2013.1/901 2013/11/27
 30 33  0  0  0  0  0  0  0  0999 V2000
   -7.9394    4.0090   15.8561 N   0  0  0  0  0  0  0  0  0  0  0  0
   -5.6096    3.9015   15.0830 C   0  0  0  0  0  0  0  0  0  0  0  0
   -2.1239    3.5661   13.3164 C   0  0  0  0  0  0  0  0  0  0  0  0
   -4.1598    4.1184   15.5259 C   0  0  0  0  0  0  0  0  0  0  0  0
   -3.5485    2.8477   15.7934 O   0  0  0  0  0  0  0  0  0  0  0  0
   -6.5299    3.9474   16.3041 C   0  0  0  0  0  0  0  0  0  0  0  0
   -1.7696    4.8951   12.7682 N   0  0  0  0  0  0  0  0  0  0  0  0
   -1.6516    4.8112   11.2883 C   0  0  0  0  0  0  0  0  0  0  0  0
   -3.0433    4.8824   10.6530 C   0  0  0  0  0  0  0  0  0  0  0  0
   -3.2880    6.2549   10.1556 N   0  0  0  0  0  0  0  0  0  0  0  0
   -4.6881    6.3535    9.6516 C   0  0  0  0  0  0  0  0  0  0  0  0
   -2.3200    6.5655    9.0660 C   0  0  0  0  0  0  0  0  0  0  0  0
   -4.9448    7.7768    9.1305 C   0  0  0  0  0  0  0  0  0  0  0  0
   -2.5785    7.9892    8.5408 C   0  0  0  0  0  0  0  0  0  0  0  0
   -3.9777    8.0876    8.0399 N   0  0  0  0  0  0  0  0  0  0  0  0
   -0.0072    2.8808   17.0932 C   0  0  0  0  0  0  0  0  0  0  0  0
    6.3327    3.3530   16.1659 N   0  0  0  0  0  0  0  0  0  0  0  0
    0.7161    3.2067   15.9211 C   0  0  0  0  0  0  0  0  0  0  0  0
    0.0241    3.4271   14.7005 C   0  0  0  0  0  0  0  0  0  0  0  0
   -1.3933    3.3244   14.6527 C   0  0  0  0  0  0  0  0  0  0  0  0
   -2.1194    2.9797   15.8322 C   0  0  0  0  0  0  0  0  0  0  0  0
   -1.4216    2.7633   17.0519 C   0  0  0  0  0  0  0  0  0  0  0  0
    6.5234    2.0233   16.6056 C   0  0  0  0  0  0  0  0  0  0  0  0
    5.2842    1.3659   16.7789 C   0  0  0  0  0  0  0  0  0  0  0  0
    2.8886    2.1904   16.3977 C   0  0  0  0  0  0  0  0  0  0  0  0
    2.1136    3.3047   15.9756 C   0  0  0  0  0  0  0  0  0  0  0  0
    2.7585    4.5159   15.6023 C   0  0  0  0  0  0  0  0  0  0  0  0
    4.1756    4.6110   15.6491 C   0  0  0  0  0  0  0  0  0  0  0  0
    4.9532    3.4837   16.0609 C   0  0  0  0  0  0  0  0  0  0  0  0
    4.3170    2.2847   16.4311 C   0  0  0  0  0  0  0  0  0  0  0  0
  1  6  1  0  0  0  0
  2  4  1  0  0  0  0
  3  7  1  0  0  0  0
  4  5  1  0  0  0  0
  6  2  1  0  0  0  0
  7  8  1  0  0  0  0
  8  9  1  0  0  0  0
  9 10  1  0  0  0  0
 10 11  1  0  0  0  0
 10 12  1  0  0  0  0
 11 13  1  0  0  0  0
 13 15  1  0  0  0  0
 14 12  1  0  0  0  0
 15 14  1  0  0  0  0
 16 18  2  0  0  0  0
 16 22  1  0  0  0  0
 17 23  1  0  0  0  0
 17 29  1  0  0  0  0
 18 19  1  0  0  0  0
 18 26  1  0  0  0  0
 19 20  2  0  0  0  0
 20  3  1  0  0  0  0
 20 21  1  0  0  0  0
 21  5  1  0  0  0  0
 21 22  2  0  0  0  0
 23 24  2  0  0  0  0
 24 30  1  0  0  0  0
 25 26  2  0  0  0  0
 25 30  1  0  0  0  0
 26 27  1  0  0  0  0
 27 28  2  0  0  0  0
 28 29  1  0  0  0  0
 29 30  2  0  0  0  0
M  END
>  <CHROM.1>
-163.53284310,91.48665584,142.34249762,163.44994343,168.81261099,81.16976416
100.15865102,-174.84616998,58.41093178,-55.61245955,-66.13299860,-0.97261739
4.27072704,13.95696288,2.51252007,0.03782839,-1.07203152

>  <Name>
1uts_lig

>  <RI>
0

>  <Rbt.Current_Directory>
/home/itssahil/PROJECTS/Mol_Feturizer/New_Systems/rnas/1uts

>  <Rbt.Executable>
rbdock ($Id: //depot/dev/client3/rdock/2013.1/src/exe/rbdock.cxx#4 $)

>  <Rbt.Library>
libRbt.so (2013.1, Build901 2013/11/27)

>  <Rbt.Parameter_File>
/export/apps/rDock/src/rDock_2013.1_src/data/scripts/dock_solv.prm

>  <Rbt.Receptor>
prm/pocket_docking_6.prm

>  <SCORE>
-36.5647

>  <SCORE.INTER>
-40.071

>  <SCORE.INTER.CONST>
1

>  <SCORE.INTER.POLAR>
-2.8843

>  <SCORE.INTER.ROT>
10

>  <SCORE.INTER.SOLV>
9.28564

>  <SCORE.INTER.VDW>
-30.4615

>  <SCORE.INTER.norm>
-1.3357

>  <SCORE.INTRA>
3.50626

>  <SCORE.INTRA.DIHEDRAL>
3.23004

>  <SCORE.INTRA.DIHEDRAL.0>
18.0451

>  <SCORE.INTRA.POLAR>
0.196815

>  <SCORE.INTRA.POLAR.0>
-0.196815

>  <SCORE.INTRA.REPUL>
0

>  <SCORE.INTRA.REPUL.0>
0

>  <SCORE.INTRA.SOLV>
-0.461972

>  <SCORE.INTRA.SOLV.lig_0>
-14.7906

>  <SCORE.INTRA.VDW>
1.45305

>  <SCORE.INTRA.VDW.0>
-0.411701

>  <SCORE.INTRA.norm>
0.116875

>  <SCORE.RESTR>
0

>  <SCORE.RESTR.CAVITY>
0

>  <SCORE.RESTR.norm>
0

>  <SCORE.SYSTEM>
0

>  <SCORE.SYSTEM.CONST>
0

>  <SCORE.SYSTEM.DIHEDRAL>
0

>  <SCORE.SYSTEM.SOLV>
0

>  <SCORE.SYSTEM.norm>
0

>  <SCORE.heavy>
30

>  <SCORE.norm>
-1.21882

>  <RMSD>
10.261

$$$$
1uts_lig
 OpenBabel11021811413D
libRbt.so/2013.1/901 2013/11/27
 30 33  0  0  0  0  0  0  0  0999 V2000
   -6.1841    3.5742   12.9387 N   0  0  0  0  0  0  0  0  0  0  0  0
   -5.5443    2.8174   15.1871 C   0  0  0  0  0  0  0  0  0  0  0  0
   -1.7727    3.4729   13.3213 C   0  0  0  0  0  0  0  0  0  0  0  0
   -4.1037    3.3367   15.1964 C   0  0  0  0  0  0  0  0  0  0  0  0
   -3.2188    2.2789   15.5938 O   0  0  0  0  0  0  0  0  0  0  0  0
   -6.4279    3.7745   14.3851 C   0  0  0  0  0  0  0  0  0  0  0  0
   -1.8100    4.8835   12.8729 N   0  0  0  0  0  0  0  0  0  0  0  0
   -2.1111    4.9387   11.4178 C   0  0  0  0  0  0  0  0  0  0  0  0
   -2.6298    6.3316   11.0488 C   0  0  0  0  0  0  0  0  0  0  0  0
   -3.2952    6.2755    9.7278 N   0  0  0  0  0  0  0  0  0  0  0  0
   -3.7041    7.6515    9.3237 C   0  0  0  0  0  0  0  0  0  0  0  0
   -4.4855    5.3827    9.8117 C   0  0  0  0  0  0  0  0  0  0  0  0
   -4.3992    7.5966    7.9536 C   0  0  0  0  0  0  0  0  0  0  0  0
   -5.1845    5.3300    8.4412 C   0  0  0  0  0  0  0  0  0  0  0  0
   -5.5904    6.7048    8.0372 N   0  0  0  0  0  0  0  0  0  0  0  0
    0.0052    3.2067   17.3192 C   0  0  0  0  0  0  0  0  0  0  0  0
    5.9750    5.7146   16.9200 N   0  0  0  0  0  0  0  0  0  0  0  0
    0.7403    3.7715   16.2497 C   0  0  0  0  0  0  0  0  0  0  0  0
    0.1584    3.8543   14.9566 C   0  0  0  0  0  0  0  0  0  0  0  0
   -1.1614    3.3745   14.7336 C   0  0  0  0  0  0  0  0  0  0  0  0
   -1.8949    2.7905   15.8098 C   0  0  0  0  0  0  0  0  0  0  0  0
   -1.3084    2.7131   17.1027 C   0  0  0  0  0  0  0  0  0  0  0  0
    6.2961    5.8292   15.5483 C   0  0  0  0  0  0  0  0  0  0  0  0
    5.2186    5.4014   14.7398 C   0  0  0  0  0  0  0  0  0  0  0  0
    2.8946    4.5318   15.3775 C   0  0  0  0  0  0  0  0  0  0  0  0
    2.0416    4.2411   16.4768 C   0  0  0  0  0  0  0  0  0  0  0  0
    2.5081    4.4339   17.8063 C   0  0  0  0  0  0  0  0  0  0  0  0
    3.8242    4.9188   18.0350 C   0  0  0  0  0  0  0  0  0  0  0  0
    4.6750    5.2236   16.9268 C   0  0  0  0  0  0  0  0  0  0  0  0
    4.2155    5.0328   15.6108 C   0  0  0  0  0  0  0  0  0  0  0  0
  1  6  1  0  0  0  0
  2  4  1  0  0  0  0
  3  7  1  0  0  0  0
  4  5  1  0  0  0  0
  6  2  1  0  0  0  0
  7  8  1  0  0  0  0
  8  9  1  0  0  0  0
  9 10  1  0  0  0  0
 10 11  1  0  0  0  0
 10 12  1  0  0  0  0
 11 13  1  0  0  0  0
 13 15  1  0  0  0  0
 14 12  1  0  0  0  0
 15 14  1  0  0  0  0
 16 18  2  0  0  0  0
 16 22  1  0  0  0  0
 17 23  1  0  0  0  0
 17 29  1  0  0  0  0
 18 19  1  0  0  0  0
 18 26  1  0  0  0  0
 19 20  2  0  0  0  0
 20  3  1  0  0  0  0
 20 21  1  0  0  0  0
 21  5  1  0  0  0  0
 21 22  2  0  0  0  0
 23 24  2  0  0  0  0
 24 30  1  0  0  0  0
 25 26  2  0  0  0  0
 25 30  1  0  0  0  0
 26 27  1  0  0  0  0
 27 28  2  0  0  0  0
 28 29  1  0  0  0  0
 29 30  2  0  0  0  0
M  END
>  <CHROM.1>
-55.84819893,-163.28820851,167.45983734,-171.12317806,76.04866572,160.27839042
-163.38791361,-175.60773146,166.02683131,-58.97543078,-62.80924499,-1.07448394
4.66955807,13.81854498,2.56641605,-0.27442474,-1.05204594

>  <Name>
1uts_lig

>  <RI>
0

>  <Rbt.Current_Directory>
/home/itssahil/PROJECTS/Mol_Feturizer/New_Systems/rnas/1uts

>  <Rbt.Executable>
rbdock ($Id: //depot/dev/client3/rdock/2013.1/src/exe/rbdock.cxx#4 $)

>  <Rbt.Library>
libRbt.so (2013.1, Build901 2013/11/27)

>  <Rbt.Parameter_File>
/export/apps/rDock/src/rDock_2013.1_src/data/scripts/dock_solv.prm

>  <Rbt.Receptor>
prm/pocket_docking_6.prm

>  <SCORE>
-40.5699

>  <SCORE.INTER>
-39.0022

>  <SCORE.INTER.CONST>
1

>  <SCORE.INTER.POLAR>
-2.61702

>  <SCORE.INTER.ROT>
10

>  <SCORE.INTER.SOLV>
10.3934

>  <SCORE.INTER.VDW>
-31.0092

>  <SCORE.INTER.norm>
-1.30007

>  <SCORE.INTRA>
-1.587

>  <SCORE.INTRA.DIHEDRAL>
-8.64568

>  <SCORE.INTRA.DIHEDRAL.0>
18.0451

>  <SCORE.INTRA.POLAR>
0.196815

>  <SCORE.INTRA.POLAR.0>
-0.196815

>  <SCORE.INTRA.REPUL>
0

>  <SCORE.INTRA.REPUL.0>
0

>  <SCORE.INTRA.SOLV>
-0.305526

>  <SCORE.INTRA.SOLV.lig_0>
-14.7906

>  <SCORE.INTRA.VDW>
2.21943

>  <SCORE.INTRA.VDW.0>
-0.411701

>  <SCORE.INTRA.norm>
-0.0528999

>  <SCORE.RESTR>
0.0193337

>  <SCORE.RESTR.CAVITY>
0.0193337

>  <SCORE.RESTR.norm>
0.000644456

>  <SCORE.SYSTEM>
0

>  <SCORE.SYSTEM.CONST>
0

>  <SCORE.SYSTEM.DIHEDRAL>
0

>  <SCORE.SYSTEM.SOLV>
0

>  <SCORE.SYSTEM.norm>
0

>  <SCORE.heavy>
30

>  <SCORE.norm>
-1.35233

>  <RMSD>
10.383

$$$$
1uts_lig
 OpenBabel11021811413D
libRbt.so/2013.1/901 2013/11/27
 30 33  0  0  0  0  0  0  0  0999 V2000
   -1.1505    7.6189   10.3798 N   0  0  0  0  0  0  0  0  0  0  0  0
   -2.5913    5.6286   10.3829 C   0  0  0  0  0  0  0  0  0  0  0  0
   -5.7476    3.4181   13.9056 C   0  0  0  0  0  0  0  0  0  0  0  0
   -2.8307    4.3910   11.2526 C   0  0  0  0  0  0  0  0  0  0  0  0
   -3.5946    4.7625   12.4094 O   0  0  0  0  0  0  0  0  0  0  0  0
   -1.9822    6.7430   11.2357 C   0  0  0  0  0  0  0  0  0  0  0  0
   -6.4773    4.1282   14.9804 N   0  0  0  0  0  0  0  0  0  0  0  0
   -7.4331    3.1972   15.6365 C   0  0  0  0  0  0  0  0  0  0  0  0
   -8.8575    3.4972   15.1606 C   0  0  0  0  0  0  0  0  0  0  0  0
   -9.8173    3.1611   16.2361 N   0  0  0  0  0  0  0  0  0  0  0  0
   -9.9004    1.6788   16.3764 C   0  0  0  0  0  0  0  0  0  0  0  0
  -11.1542    3.7274   15.9002 C   0  0  0  0  0  0  0  0  0  0  0  0
  -10.8994    1.3258   17.4902 C   0  0  0  0  0  0  0  0  0  0  0  0
  -12.1564    3.3714   17.0130 C   0  0  0  0  0  0  0  0  0  0  0  0
  -12.2370    1.8909   17.1542 N   0  0  0  0  0  0  0  0  0  0  0  0
   -1.5278    2.9620   15.0014 C   0  0  0  0  0  0  0  0  0  0  0  0
   -1.3107   -0.9285   20.1869 N   0  0  0  0  0  0  0  0  0  0  0  0
   -2.5334    2.3134   15.7572 C   0  0  0  0  0  0  0  0  0  0  0  0
   -3.8989    2.4657   15.3970 C   0  0  0  0  0  0  0  0  0  0  0  0
   -4.2588    3.2653   14.2776 C   0  0  0  0  0  0  0  0  0  0  0  0
   -3.2444    3.9317   13.5267 C   0  0  0  0  0  0  0  0  0  0  0  0
   -1.8790    3.7730   13.8901 C   0  0  0  0  0  0  0  0  0  0  0  0
   -2.6372   -1.3002   20.5031 C   0  0  0  0  0  0  0  0  0  0  0  0
   -3.5569   -0.6906   19.6199 C   0  0  0  0  0  0  0  0  0  0  0  0
   -3.1730    0.8726   17.6266 C   0  0  0  0  0  0  0  0  0  0  0  0
   -2.1710    1.5278   16.8604 C   0  0  0  0  0  0  0  0  0  0  0  0
   -0.8007    1.3795   17.2106 C   0  0  0  0  0  0  0  0  0  0  0  0
   -0.4340    0.5754   18.3236 C   0  0  0  0  0  0  0  0  0  0  0  0
   -1.4435   -0.0937   19.0840 C   0  0  0  0  0  0  0  0  0  0  0  0
   -2.7997    0.0524   18.7394 C   0  0  0  0  0  0  0  0  0  0  0  0
  1  6  1  0  0  0  0
  2  4  1  0  0  0  0
  3  7  1  0  0  0  0
  4  5  1  0  0  0  0
  6  2  1  0  0  0  0
  7  8  1  0  0  0  0
  8  9  1  0  0  0  0
  9 10  1  0  0  0  0
 10 11  1  0  0  0  0
 10 12  1  0  0  0  0
 11 13  1  0  0  0  0
 13 15  1  0  0  0  0
 14 12  1  0  0  0  0
 15 14  1  0  0  0  0
 16 18  2  0  0  0  0
 16 22  1  0  0  0  0
 17 23  1  0  0  0  0
 17 29  1  0  0  0  0
 18 19  1  0  0  0  0
 18 26  1  0  0  0  0
 19 20  2  0  0  0  0
 20  3  1  0  0  0  0
 20 21  1  0  0  0  0
 21  5  1  0  0  0  0
 21 22  2  0  0  0  0
 23 24  2  0  0  0  0
 24 30  1  0  0  0  0
 25 26  2  0  0  0  0
 25 30  1  0  0  0  0
 26 27  1  0  0  0  0
 27 28  2  0  0  0  0
 28 29  1  0  0  0  0
 29 30  2  0  0  0  0
M  END
>  <CHROM.1>
-79.19183109,52.84769760,-112.29379540,-148.73902612,151.77506522,-103.89780661
-149.81148994,-71.52908378,179.96903796,64.82276092,-128.69730117,-4.87276655
2.71779888,15.63175286,0.37012392,0.07573321,-0.90855311

>  <Name>
1uts_lig

>  <RI>
0

>  <Rbt.Current_Directory>
/home/itssahil/PROJECTS/Mol_Feturizer/New_Systems/rnas/1uts

>  <Rbt.Executable>
rbdock ($Id: //depot/dev/client3/rdock/2013.1/src/exe/rbdock.cxx#4 $)

>  <Rbt.Library>
libRbt.so (2013.1, Build901 2013/11/27)

>  <Rbt.Parameter_File>
/export/apps/rDock/src/rDock_2013.1_src/data/scripts/dock_solv.prm

>  <Rbt.Receptor>
prm/pocket_docking_8.prm

>  <SCORE>
-28.3175

>  <SCORE.INTER>
-33.567

>  <SCORE.INTER.CONST>
1

>  <SCORE.INTER.POLAR>
-3.5972

>  <SCORE.INTER.ROT>
10

>  <SCORE.INTER.SOLV>
9.59299

>  <SCORE.INTER.VDW>
-23.8516

>  <SCORE.INTER.norm>
-1.1189

>  <SCORE.INTRA>
5.24945

>  <SCORE.INTRA.DIHEDRAL>
2.56391

>  <SCORE.INTRA.DIHEDRAL.0>
18.0451

>  <SCORE.INTRA.POLAR>
0.196815

>  <SCORE.INTRA.POLAR.0>
-0.196815

>  <SCORE.INTRA.REPUL>
0

>  <SCORE.INTRA.REPUL.0>
0

>  <SCORE.INTRA.SOLV>
-0.572846

>  <SCORE.INTRA.SOLV.lig_0>
-14.7906

>  <SCORE.INTRA.VDW>
3.58475

>  <SCORE.INTRA.VDW.0>
-0.411701

>  <SCORE.INTRA.norm>
0.174982

>  <SCORE.RESTR>
0

>  <SCORE.RESTR.CAVITY>
0

>  <SCORE.RESTR.norm>
0

>  <SCORE.SYSTEM>
0

>  <SCORE.SYSTEM.CONST>
0

>  <SCORE.SYSTEM.DIHEDRAL>
0

>  <SCORE.SYSTEM.SOLV>
0

>  <SCORE.SYSTEM.norm>
0

>  <SCORE.heavy>
30

>  <SCORE.norm>
-0.943918

>  <RMSD>
10.386

$$$$
1uts_lig
 OpenBabel11021811413D
libRbt.so/2013.1/901 2013/11/27
 30 33  0  0  0  0  0  0  0  0999 V2000
   -1.1506    7.6437   10.2581 N   0  0  0  0  0  0  0  0  0  0  0  0
   -2.9651    6.2359    9.3844 C   0  0  0  0  0  0  0  0  0  0  0  0
   -5.2710    3.7047   13.2618 C   0  0  0  0  0  0  0  0  0  0  0  0
   -2.7059    5.0670   10.3392 C   0  0  0  0  0  0  0  0  0  0  0  0
   -3.4516    5.2661   11.5492 O   0  0  0  0  0  0  0  0  0  0  0  0
   -2.6176    7.5526   10.0816 C   0  0  0  0  0  0  0  0  0  0  0  0
   -5.9654    3.6227   14.5668 N   0  0  0  0  0  0  0  0  0  0  0  0
   -7.4180    3.3925   14.3477 C   0  0  0  0  0  0  0  0  0  0  0  0
   -8.1349    3.2871   15.6969 C   0  0  0  0  0  0  0  0  0  0  0  0
   -9.5283    2.8370   15.4805 N   0  0  0  0  0  0  0  0  0  0  0  0
   -9.5178    1.4552   14.9197 C   0  0  0  0  0  0  0  0  0  0  0  0
  -10.2102    3.7735   14.5431 C   0  0  0  0  0  0  0  0  0  0  0  0
  -10.9635    0.9857   14.6899 C   0  0  0  0  0  0  0  0  0  0  0  0
  -11.6569    3.3022   14.3093 C   0  0  0  0  0  0  0  0  0  0  0  0
  -11.6456    1.9213   13.7515 N   0  0  0  0  0  0  0  0  0  0  0  0
   -0.9318    3.7051   13.8827 C   0  0  0  0  0  0  0  0  0  0  0  0
    0.2750   -0.1362   18.9670 N   0  0  0  0  0  0  0  0  0  0  0  0
   -1.7731    2.9554   14.7391 C   0  0  0  0  0  0  0  0  0  0  0  0
   -3.1784    2.9600   14.5326 C   0  0  0  0  0  0  0  0  0  0  0  0
   -3.7426    3.7129   13.4664 C   0  0  0  0  0  0  0  0  0  0  0  0
   -2.8939    4.4812   12.6140 C   0  0  0  0  0  0  0  0  0  0  0  0
   -1.4876    4.4702   12.8236 C   0  0  0  0  0  0  0  0  0  0  0  0
   -0.9463   -0.7323   19.3554 C   0  0  0  0  0  0  0  0  0  0  0  0
   -2.0135   -0.2654   18.5548 C   0  0  0  0  0  0  0  0  0  0  0  0
   -2.0335    1.3853   16.5955 C   0  0  0  0  0  0  0  0  0  0  0  0
   -1.2096    2.2167   15.7890 C   0  0  0  0  0  0  0  0  0  0  0  0
    0.1872    2.2923   16.0446 C   0  0  0  0  0  0  0  0  0  0  0  0
    0.7586    1.5359   17.1034 C   0  0  0  0  0  0  0  0  0  0  0  0
   -0.0707    0.6897   17.9041 C   0  0  0  0  0  0  0  0  0  0  0  0
   -1.4530    0.6140   17.6532 C   0  0  0  0  0  0  0  0  0  0  0  0
  1  6  1  0  0  0  0
  2  4  1  0  0  0  0
  3  7  1  0  0  0  0
  4  5  1  0  0  0  0
  6  2  1  0  0  0  0
  7  8  1  0  0  0  0
  8  9  1  0  0  0  0
  9 10  1  0  0  0  0
 10 11  1  0  0  0  0
 10 12  1  0  0  0  0
 11 13  1  0  0  0  0
 13 15  1  0  0  0  0
 14 12  1  0  0  0  0
 15 14  1  0  0  0  0
 16 18  2  0  0  0  0
 16 22  1  0  0  0  0
 17 23  1  0  0  0  0
 17 29  1  0  0  0  0
 18 19  1  0  0  0  0
 18 26  1  0  0  0  0
 19 20  2  0  0  0  0
 20  3  1  0  0  0  0
 20 21  1  0  0  0  0
 21  5  1  0  0  0  0
 21 22  2  0  0  0  0
 23 24  2  0  0  0  0
 24 30  1  0  0  0  0
 25 26  2  0  0  0  0
 25 30  1  0  0  0  0
 26 27  1  0  0  0  0
 27 28  2  0  0  0  0
 28 29  1  0  0  0  0
 29 30  2  0  0  0  0
M  END
>  <CHROM.1>
-169.81183835,56.04998213,-170.81335335,-159.81415934,69.84518561,179.18854489
-170.66217183,64.67665538,-175.50840580,34.33826223,-134.00839448,-4.26694823
3.06906695,14.48642346,-0.22052516,-0.05779277,-0.89159027

>  <Name>
1uts_lig

>  <RI>
0

>  <Rbt.Current_Directory>
/home/itssahil/PROJECTS/Mol_Feturizer/New_Systems/rnas/1uts

>  <Rbt.Executable>
rbdock ($Id: //depot/dev/client3/rdock/2013.1/src/exe/rbdock.cxx#4 $)

>  <Rbt.Library>
libRbt.so (2013.1, Build901 2013/11/27)

>  <Rbt.Parameter_File>
/export/apps/rDock/src/rDock_2013.1_src/data/scripts/dock_solv.prm

>  <Rbt.Receptor>
prm/pocket_docking_6.prm

>  <SCORE>
-34.6782

>  <SCORE.INTER>
-35.6153

>  <SCORE.INTER.CONST>
1

>  <SCORE.INTER.POLAR>
-3.12216

>  <SCORE.INTER.ROT>
10

>  <SCORE.INTER.SOLV>
10.3798

>  <SCORE.INTER.VDW>
-27.0629

>  <SCORE.INTER.norm>
-1.18718

>  <SCORE.INTRA>
0.937012

>  <SCORE.INTRA.DIHEDRAL>
-11.7633

>  <SCORE.INTRA.DIHEDRAL.0>
18.0451

>  <SCORE.INTRA.POLAR>
0.196815

>  <SCORE.INTRA.POLAR.0>
-0.196815

>  <SCORE.INTRA.REPUL>
0

>  <SCORE.INTRA.REPUL.0>
0

>  <SCORE.INTRA.SOLV>
-0.232841

>  <SCORE.INTRA.SOLV.lig_0>
-14.7906

>  <SCORE.INTRA.VDW>
6.26592

>  <SCORE.INTRA.VDW.0>
-0.411701

>  <SCORE.INTRA.norm>
0.0312337

>  <SCORE.RESTR>
0

>  <SCORE.RESTR.CAVITY>
0

>  <SCORE.RESTR.norm>
0

>  <SCORE.SYSTEM>
0

>  <SCORE.SYSTEM.CONST>
0

>  <SCORE.SYSTEM.DIHEDRAL>
0

>  <SCORE.SYSTEM.SOLV>
0

>  <SCORE.SYSTEM.norm>
0

>  <SCORE.heavy>
30

>  <SCORE.norm>
-1.15594

>  <RMSD>
10.396

$$$$
1uts_lig
 OpenBabel11021811413D
libRbt.so/2013.1/901 2013/11/27
 30 33  0  0  0  0  0  0  0  0999 V2000
   -9.0346    0.5947   12.9388 N   0  0  0  0  0  0  0  0  0  0  0  0
   -7.8767    2.0551   14.5400 C   0  0  0  0  0  0  0  0  0  0  0  0
   -5.1083    3.8098   11.8137 C   0  0  0  0  0  0  0  0  0  0  0  0
   -7.7566    3.5085   15.0073 C   0  0  0  0  0  0  0  0  0  0  0  0
   -6.9376    4.2397   14.0830 O   0  0  0  0  0  0  0  0  0  0  0  0
   -8.6820    2.0005   13.2405 C   0  0  0  0  0  0  0  0  0  0  0  0
   -3.9563    3.9741   10.8983 N   0  0  0  0  0  0  0  0  0  0  0  0
   -4.4257    4.5117    9.5938 C   0  0  0  0  0  0  0  0  0  0  0  0
   -4.9784    5.9270    9.7857 C   0  0  0  0  0  0  0  0  0  0  0  0
   -3.8931    6.9119    9.5783 N   0  0  0  0  0  0  0  0  0  0  0  0
   -3.3653    6.7779    8.1900 C   0  0  0  0  0  0  0  0  0  0  0  0
   -2.8094    6.6698   10.5722 C   0  0  0  0  0  0  0  0  0  0  0  0
   -2.2351    7.7969    7.9720 C   0  0  0  0  0  0  0  0  0  0  0  0
   -1.6753    7.6872   10.3525 C   0  0  0  0  0  0  0  0  0  0  0  0
   -1.1504    7.5544    8.9651 N   0  0  0  0  0  0  0  0  0  0  0  0
   -3.7089    3.7317   15.9670 C   0  0  0  0  0  0  0  0  0  0  0  0
    2.5600    2.2327   16.0354 N   0  0  0  0  0  0  0  0  0  0  0  0
   -2.8009    3.5025   14.9058 C   0  0  0  0  0  0  0  0  0  0  0  0
   -3.2611    3.5288   13.5622 C   0  0  0  0  0  0  0  0  0  0  0  0
   -4.6304    3.7876   13.2796 C   0  0  0  0  0  0  0  0  0  0  0  0
   -5.5475    4.0022   14.3520 C   0  0  0  0  0  0  0  0  0  0  0  0
   -5.0805    3.9778   15.6948 C   0  0  0  0  0  0  0  0  0  0  0  0
    2.3721    0.8468   16.2397 C   0  0  0  0  0  0  0  0  0  0  0  0
    1.0113    0.4943   16.0927 C   0  0  0  0  0  0  0  0  0  0  0  0
   -1.0314    1.9267   15.5101 C   0  0  0  0  0  0  0  0  0  0  0  0
   -1.4526    3.2466   15.1922 C   0  0  0  0  0  0  0  0  0  0  0  0
   -0.5032    4.3048   15.1585 C   0  0  0  0  0  0  0  0  0  0  0  0
    0.8648    4.0423   15.4401 C   0  0  0  0  0  0  0  0  0  0  0  0
    1.2877    2.7109   15.7459 C   0  0  0  0  0  0  0  0  0  0  0  0
    0.3498    1.6628   15.7803 C   0  0  0  0  0  0  0  0  0  0  0  0
  1  6  1  0  0  0  0
  2  4  1  0  0  0  0
  3  7  1  0  0  0  0
  4  5  1  0  0  0  0
  6  2  1  0  0  0  0
  7  8  1  0  0  0  0
  8  9  1  0  0  0  0
  9 10  1  0  0  0  0
 10 11  1  0  0  0  0
 10 12  1  0  0  0  0
 11 13  1  0  0  0  0
 13 15  1  0  0  0  0
 14 12  1  0  0  0  0
 15 14  1  0  0  0  0
 16 18  2  0  0  0  0
 16 22  1  0  0  0  0
 17 23  1  0  0  0  0
 17 29  1  0  0  0  0
 18 19  1  0  0  0  0
 18 26  1  0  0  0  0
 19 20  2  0  0  0  0
 20  3  1  0  0  0  0
 20 21  1  0  0  0  0
 21  5  1  0  0  0  0
 21 22  2  0  0  0  0
 23 24  2  0  0  0  0
 24 30  1  0  0  0  0
 25 26  2  0  0  0  0
 25 30  1  0  0  0  0
 26 27  1  0  0  0  0
 27 28  2  0  0  0  0
 28 29  1  0  0  0  0
 29 30  2  0  0  0  0
M  END
>  <CHROM.1>
-67.59357517,-67.55443760,-158.24007259,-80.94738688,-168.48360578,65.35178418
91.25796524,60.57894989,84.35982992,-18.07359608,137.69043894,-3.22048734
3.97581546,13.09176173,2.34481370,-0.13313739,-0.91639822

>  <Name>
1uts_lig

>  <RI>
0

>  <Rbt.Current_Directory>
/home/itssahil/PROJECTS/Mol_Feturizer/New_Systems/rnas/1uts

>  <Rbt.Executable>
rbdock ($Id: //depot/dev/client3/rdock/2013.1/src/exe/rbdock.cxx#4 $)

>  <Rbt.Library>
libRbt.so (2013.1, Build901 2013/11/27)

>  <Rbt.Parameter_File>
/export/apps/rDock/src/rDock_2013.1_src/data/scripts/dock_solv.prm

>  <Rbt.Receptor>
prm/pocket_docking_8.prm

>  <SCORE>
-30.7147

>  <SCORE.INTER>
-37.2585

>  <SCORE.INTER.CONST>
1

>  <SCORE.INTER.POLAR>
-2.17848

>  <SCORE.INTER.ROT>
10

>  <SCORE.INTER.SOLV>
14.6537

>  <SCORE.INTER.VDW>
-32.7287

>  <SCORE.INTER.norm>
-1.24195

>  <SCORE.INTRA>
6.54382

>  <SCORE.INTRA.DIHEDRAL>
-3.5385

>  <SCORE.INTRA.DIHEDRAL.0>
18.0451

>  <SCORE.INTRA.POLAR>
0.196815

>  <SCORE.INTRA.POLAR.0>
-0.196815

>  <SCORE.INTRA.REPUL>
0

>  <SCORE.INTRA.REPUL.0>
0

>  <SCORE.INTRA.SOLV>
-0.356841

>  <SCORE.INTRA.SOLV.lig_0>
-14.7906

>  <SCORE.INTRA.VDW>
7.82232

>  <SCORE.INTRA.VDW.0>
-0.411701

>  <SCORE.INTRA.norm>
0.218127

>  <SCORE.RESTR>
0

>  <SCORE.RESTR.CAVITY>
0

>  <SCORE.RESTR.norm>
0

>  <SCORE.SYSTEM>
0

>  <SCORE.SYSTEM.CONST>
0

>  <SCORE.SYSTEM.DIHEDRAL>
0

>  <SCORE.SYSTEM.SOLV>
0

>  <SCORE.SYSTEM.norm>
0

>  <SCORE.heavy>
30

>  <SCORE.norm>
-1.02382

>  <RMSD>
10.401

$$$$
1uts_lig
 OpenBabel11021811413D
libRbt.so/2013.1/901 2013/11/27
 30 33  0  0  0  0  0  0  0  0999 V2000
   -6.7985    1.3539   14.6244 N   0  0  0  0  0  0  0  0  0  0  0  0
   -6.2047    3.7346   14.7539 C   0  0  0  0  0  0  0  0  0  0  0  0
   -2.3689    4.1925   12.9167 C   0  0  0  0  0  0  0  0  0  0  0  0
   -4.6975    3.4634   14.7678 C   0  0  0  0  0  0  0  0  0  0  0  0
   -4.0152    4.5956   15.3268 O   0  0  0  0  0  0  0  0  0  0  0  0
   -6.9109    2.6564   13.9299 C   0  0  0  0  0  0  0  0  0  0  0  0
   -1.9981    5.4805   12.2878 N   0  0  0  0  0  0  0  0  0  0  0  0
   -1.7389    5.2738   10.8382 C   0  0  0  0  0  0  0  0  0  0  0  0
   -2.2304    6.4888   10.0459 C   0  0  0  0  0  0  0  0  0  0  0  0
   -3.6847    6.3620    9.8015 N   0  0  0  0  0  0  0  0  0  0  0  0
   -3.9080    5.8132    8.4330 C   0  0  0  0  0  0  0  0  0  0  0  0
   -4.3270    7.7000    9.9363 C   0  0  0  0  0  0  0  0  0  0  0  0
   -5.4177    5.6837    8.1740 C   0  0  0  0  0  0  0  0  0  0  0  0
   -5.8383    7.5723    9.6735 C   0  0  0  0  0  0  0  0  0  0  0  0
   -6.0604    7.0218    8.3075 N   0  0  0  0  0  0  0  0  0  0  0  0
   -0.6772    3.9255   16.9518 C   0  0  0  0  0  0  0  0  0  0  0  0
    5.5264    2.2394   16.5304 N   0  0  0  0  0  0  0  0  0  0  0  0
    0.1442    3.7074   15.8200 C   0  0  0  0  0  0  0  0  0  0  0  0
   -0.4105    3.7950   14.5153 C   0  0  0  0  0  0  0  0  0  0  0  0
   -1.7876    4.1041   14.3423 C   0  0  0  0  0  0  0  0  0  0  0  0
   -2.6177    4.3076   15.4854 C   0  0  0  0  0  0  0  0  0  0  0  0
   -2.0562    4.2217   16.7889 C   0  0  0  0  0  0  0  0  0  0  0  0
    5.2998    0.8716   16.8053 C   0  0  0  0  0  0  0  0  0  0  0  0
    3.9178    0.5756   16.7910 C   0  0  0  0  0  0  0  0  0  0  0  0
    1.8930    2.0765   16.3311 C   0  0  0  0  0  0  0  0  0  0  0  0
    1.5007    3.4016   15.9985 C   0  0  0  0  0  0  0  0  0  0  0  0
    2.4866    4.4141   15.8403 C   0  0  0  0  0  0  0  0  0  0  0  0
    3.8620    4.1007   16.0125 C   0  0  0  0  0  0  0  0  0  0  0  0
    4.2545    2.7636   16.3334 C   0  0  0  0  0  0  0  0  0  0  0  0
    3.2805    1.7607   16.4908 C   0  0  0  0  0  0  0  0  0  0  0  0
  1  6  1  0  0  0  0
  2  4  1  0  0  0  0
  3  7  1  0  0  0  0
  4  5  1  0  0  0  0
  6  2  1  0  0  0  0
  7  8  1  0  0  0  0
  8  9  1  0  0  0  0
  9 10  1  0  0  0  0
 10 11  1  0  0  0  0
 10 12  1  0  0  0  0
 11 13  1  0  0  0  0
 13 15  1  0  0  0  0
 14 12  1  0  0  0  0
 15 14  1  0  0  0  0
 16 18  2  0  0  0  0
 16 22  1  0  0  0  0
 17 23  1  0  0  0  0
 17 29  1  0  0  0  0
 18 19  1  0  0  0  0
 18 26  1  0  0  0  0
 19 20  2  0  0  0  0
 20  3  1  0  0  0  0
 20 21  1  0  0  0  0
 21  5  1  0  0  0  0
 21 22  2  0  0  0  0
 23 24  2  0  0  0  0
 24 30  1  0  0  0  0
 25 26  2  0  0  0  0
 25 30  1  0  0  0  0
 26 27  1  0  0  0  0
 27 28  2  0  0  0  0
 28 29  1  0  0  0  0
 29 30  2  0  0  0  0
M  END
>  <CHROM.1>
61.54912720,169.55209158,143.57721665,173.70543488,67.09541015,143.86996674
-82.82139787,-97.80847614,80.05734027,-77.82817119,66.38837212,-1.57910276
4.17174920,13.70221300,2.45296514,-0.03657683,-1.01979678

>  <Name>
1uts_lig

>  <RI>
0

>  <Rbt.Current_Directory>
/home/itssahil/PROJECTS/Mol_Feturizer/New_Systems/rnas/1uts

>  <Rbt.Executable>
rbdock ($Id: //depot/dev/client3/rdock/2013.1/src/exe/rbdock.cxx#4 $)

>  <Rbt.Library>
libRbt.so (2013.1, Build901 2013/11/27)

>  <Rbt.Parameter_File>
/export/apps/rDock/src/rDock_2013.1_src/data/scripts/dock_solv.prm

>  <Rbt.Receptor>
prm/pocket_docking_7.prm

>  <SCORE>
-37.2818

>  <SCORE.INTER>
-38.2803

>  <SCORE.INTER.CONST>
1

>  <SCORE.INTER.POLAR>
-1.68945

>  <SCORE.INTER.ROT>
10

>  <SCORE.INTER.SOLV>
10.5077

>  <SCORE.INTER.VDW>
-33.6579

>  <SCORE.INTER.norm>
-1.27601

>  <SCORE.INTRA>
0.998469

>  <SCORE.INTRA.DIHEDRAL>
1.21107

>  <SCORE.INTRA.DIHEDRAL.0>
18.0451

>  <SCORE.INTRA.POLAR>
0.196815

>  <SCORE.INTRA.POLAR.0>
-0.196815

>  <SCORE.INTRA.REPUL>
0

>  <SCORE.INTRA.REPUL.0>
0

>  <SCORE.INTRA.SOLV>
-0.322051

>  <SCORE.INTRA.SOLV.lig_0>
-14.7906

>  <SCORE.INTRA.VDW>
-0.11521

>  <SCORE.INTRA.VDW.0>
-0.411701

>  <SCORE.INTRA.norm>
0.0332823

>  <SCORE.RESTR>
0

>  <SCORE.RESTR.CAVITY>
0

>  <SCORE.RESTR.norm>
0

>  <SCORE.SYSTEM>
0

>  <SCORE.SYSTEM.CONST>
0

>  <SCORE.SYSTEM.DIHEDRAL>
0

>  <SCORE.SYSTEM.SOLV>
0

>  <SCORE.SYSTEM.norm>
0

>  <SCORE.heavy>
30

>  <SCORE.norm>
-1.24273

>  <RMSD>
10.406

$$$$
1uts_lig
 OpenBabel11021811413D
libRbt.so/2013.1/901 2013/11/27
 30 33  0  0  0  0  0  0  0  0999 V2000
   -8.5441    6.7146    7.9347 N   0  0  0  0  0  0  0  0  0  0  0  0
   -6.8288    5.2887    8.9653 C   0  0  0  0  0  0  0  0  0  0  0  0
   -6.4296    3.4281   12.8593 C   0  0  0  0  0  0  0  0  0  0  0  0
   -5.5020    5.2981    9.7300 C   0  0  0  0  0  0  0  0  0  0  0  0
   -5.2288    3.9792   10.2257 O   0  0  0  0  0  0  0  0  0  0  0  0
   -7.2614    6.7268    8.6738 C   0  0  0  0  0  0  0  0  0  0  0  0
   -6.8743    3.7233   14.2402 N   0  0  0  0  0  0  0  0  0  0  0  0
   -8.1288    2.9803   14.5321 C   0  0  0  0  0  0  0  0  0  0  0  0
   -8.1408    2.5404   15.9990 C   0  0  0  0  0  0  0  0  0  0  0  0
   -7.8558    3.7063   16.8652 N   0  0  0  0  0  0  0  0  0  0  0  0
   -6.5049    3.5469   17.4764 C   0  0  0  0  0  0  0  0  0  0  0  0
   -8.8986    3.8007   17.9257 C   0  0  0  0  0  0  0  0  0  0  0  0
   -6.2069    4.7544   18.3800 C   0  0  0  0  0  0  0  0  0  0  0  0
   -8.5991    5.0073   18.8334 C   0  0  0  0  0  0  0  0  0  0  0  0
   -7.2488    4.8486   19.4416 N   0  0  0  0  0  0  0  0  0  0  0  0
   -2.1921    4.4573   12.4124 C   0  0  0  0  0  0  0  0  0  0  0  0
    0.7755    4.6240   18.0728 N   0  0  0  0  0  0  0  0  0  0  0  0
   -2.7344    4.2172   13.6975 C   0  0  0  0  0  0  0  0  0  0  0  0
   -4.1084    3.8846   13.8353 C   0  0  0  0  0  0  0  0  0  0  0  0
   -4.9403    3.7889   12.6861 C   0  0  0  0  0  0  0  0  0  0  0  0
   -4.3952    4.0474   11.3926 C   0  0  0  0  0  0  0  0  0  0  0  0
   -3.0184    4.3769   11.2605 C   0  0  0  0  0  0  0  0  0  0  0  0
    1.9760    4.4300   17.3526 C   0  0  0  0  0  0  0  0  0  0  0  0
    1.7132    4.2181   15.9801 C   0  0  0  0  0  0  0  0  0  0  0  0
   -0.5004    4.1731   14.6910 C   0  0  0  0  0  0  0  0  0  0  0  0
   -1.9083    4.3148   14.8261 C   0  0  0  0  0  0  0  0  0  0  0  0
   -2.4763    4.5627   16.1060 C   0  0  0  0  0  0  0  0  0  0  0  0
   -1.6370    4.6706   17.2478 C   0  0  0  0  0  0  0  0  0  0  0  0
   -0.2198    4.5413   17.1065 C   0  0  0  0  0  0  0  0  0  0  0  0
    0.3438    4.2955   15.8411 C   0  0  0  0  0  0  0  0  0  0  0  0
  1  6  1  0  0  0  0
  2  4  1  0  0  0  0
  3  7  1  0  0  0  0
  4  5  1  0  0  0  0
  6  2  1  0  0  0  0
  7  8  1  0  0  0  0
  8  9  1  0  0  0  0
  9 10  1  0  0  0  0
 10 11  1  0  0  0  0
 10 12  1  0  0  0  0
 11 13  1  0  0  0  0
 13 15  1  0  0  0  0
 14 12  1  0  0  0  0
 15 14  1  0  0  0  0
 16 18  2  0  0  0  0
 16 22  1  0  0  0  0
 17 23  1  0  0  0  0
 17 29  1  0  0  0  0
 18 19  1  0  0  0  0
 18 26  1  0  0  0  0
 19 20  2  0  0  0  0
 20  3  1  0  0  0  0
 20 21  1  0  0  0  0
 21  5  1  0  0  0  0
 21 22  2  0  0  0  0
 23 24  2  0  0  0  0
 24 30  1  0  0  0  0
 25 26  2  0  0  0  0
 25 30  1  0  0  0  0
 26 27  1  0  0  0  0
 27 28  2  0  0  0  0
 28 29  1  0  0  0  0
 29 30  2  0  0  0  0
M  END
>  <CHROM.1>
62.27117810,168.95292933,-161.37980393,-153.83193216,-179.99511638,144.85615098
51.39305803,-110.12790196,-22.55642146,21.15498062,106.57943953,-4.56455607
4.38776195,14.45907292,-2.32192530,0.01651810,1.69251203

>  <Name>
1uts_lig

>  <RI>
0

>  <Rbt.Current_Directory>
/home/itssahil/PROJECTS/Mol_Feturizer/New_Systems/rnas/1uts

>  <Rbt.Executable>
rbdock ($Id: //depot/dev/client3/rdock/2013.1/src/exe/rbdock.cxx#4 $)

>  <Rbt.Library>
libRbt.so (2013.1, Build901 2013/11/27)

>  <Rbt.Parameter_File>
/export/apps/rDock/src/rDock_2013.1_src/data/scripts/dock_solv.prm

>  <Rbt.Receptor>
prm/pocket_docking_6.prm

>  <SCORE>
-35.879

>  <SCORE.INTER>
-36.8199

>  <SCORE.INTER.CONST>
1

>  <SCORE.INTER.POLAR>
-1.90092

>  <SCORE.INTER.ROT>
10

>  <SCORE.INTER.SOLV>
12.4799

>  <SCORE.INTER.VDW>
-32.6368

>  <SCORE.INTER.norm>
-1.22733

>  <SCORE.INTRA>
0.880286

>  <SCORE.INTRA.DIHEDRAL>
-2.16819

>  <SCORE.INTRA.DIHEDRAL.0>
18.0451

>  <SCORE.INTRA.POLAR>
0.196815

>  <SCORE.INTRA.POLAR.0>
-0.196815

>  <SCORE.INTRA.REPUL>
0

>  <SCORE.INTRA.REPUL.0>
0

>  <SCORE.INTRA.SOLV>
-0.31554

>  <SCORE.INTRA.SOLV.lig_0>
-14.7906

>  <SCORE.INTRA.VDW>
1.45298

>  <SCORE.INTRA.VDW.0>
-0.411701

>  <SCORE.INTRA.norm>
0.0293429

>  <SCORE.RESTR>
0.0606259

>  <SCORE.RESTR.CAVITY>
0.0606259

>  <SCORE.RESTR.norm>
0.00202086

>  <SCORE.SYSTEM>
0

>  <SCORE.SYSTEM.CONST>
0

>  <SCORE.SYSTEM.DIHEDRAL>
0

>  <SCORE.SYSTEM.SOLV>
0

>  <SCORE.SYSTEM.norm>
0

>  <SCORE.heavy>
30

>  <SCORE.norm>
-1.19597

>  <RMSD>
10.432

$$$$
1uts_lig
 OpenBabel11021811413D
libRbt.so/2013.1/901 2013/11/27
 30 33  0  0  0  0  0  0  0  0999 V2000
   -5.3528    1.5553   18.1489 N   0  0  0  0  0  0  0  0  0  0  0  0
   -4.7401    2.2308   15.8673 C   0  0  0  0  0  0  0  0  0  0  0  0
   -2.5610    4.2881   12.9239 C   0  0  0  0  0  0  0  0  0  0  0  0
   -4.8168    3.3703   14.8470 C   0  0  0  0  0  0  0  0  0  0  0  0
   -4.1672    4.5329   15.3819 O   0  0  0  0  0  0  0  0  0  0  0  0
   -5.4221    2.6612   17.1672 C   0  0  0  0  0  0  0  0  0  0  0  0
   -2.1759    5.5693   12.2897 N   0  0  0  0  0  0  0  0  0  0  0  0
   -2.5815    5.5618   10.8591 C   0  0  0  0  0  0  0  0  0  0  0  0
   -2.2832    6.9255   10.2291 C   0  0  0  0  0  0  0  0  0  0  0  0
   -3.3702    7.2827    9.2901 N   0  0  0  0  0  0  0  0  0  0  0  0
   -2.9218    8.4109    8.4241 C   0  0  0  0  0  0  0  0  0  0  0  0
   -4.5835    7.6710   10.0634 C   0  0  0  0  0  0  0  0  0  0  0  0
   -4.0498    8.7872    7.4499 C   0  0  0  0  0  0  0  0  0  0  0  0
   -5.7126    8.0518    9.0889 C   0  0  0  0  0  0  0  0  0  0  0  0
   -5.2631    9.1770    8.2228 N   0  0  0  0  0  0  0  0  0  0  0  0
   -0.7648    3.9653   16.9094 C   0  0  0  0  0  0  0  0  0  0  0  0
    5.5878    3.0721   16.2760 N   0  0  0  0  0  0  0  0  0  0  0  0
    0.0390    3.8238   15.7530 C   0  0  0  0  0  0  0  0  0  0  0  0
   -0.5495    3.9291   14.4646 C   0  0  0  0  0  0  0  0  0  0  0  0
   -1.9430    4.1792   14.3325 C   0  0  0  0  0  0  0  0  0  0  0  0
   -2.7546    4.3053   15.4999 C   0  0  0  0  0  0  0  0  0  0  0  0
   -2.1594    4.2021   16.7870 C   0  0  0  0  0  0  0  0  0  0  0  0
    5.9807    4.3554   15.8326 C   0  0  0  0  0  0  0  0  0  0  0  0
    4.8557    5.1331   15.4762 C   0  0  0  0  0  0  0  0  0  0  0  0
    2.3543    4.5838   15.5498 C   0  0  0  0  0  0  0  0  0  0  0  0
    1.4120    3.5758   15.8911 C   0  0  0  0  0  0  0  0  0  0  0  0
    1.8639    2.3189   16.3791 C   0  0  0  0  0  0  0  0  0  0  0  0
    3.2555    2.0721   16.5274 C   0  0  0  0  0  0  0  0  0  0  0  0
    4.2006    3.0930   16.1963 C   0  0  0  0  0  0  0  0  0  0  0  0
    3.7554    4.3369   15.7128 C   0  0  0  0  0  0  0  0  0  0  0  0
  1  6  1  0  0  0  0
  2  4  1  0  0  0  0
  3  7  1  0  0  0  0
  4  5  1  0  0  0  0
  6  2  1  0  0  0  0
  7  8  1  0  0  0  0
  8  9  1  0  0  0  0
  9 10  1  0  0  0  0
 10 11  1  0  0  0  0
 10 12  1  0  0  0  0
 11 13  1  0  0  0  0
 13 15  1  0  0  0  0
 14 12  1  0  0  0  0
 15 14  1  0  0  0  0
 16 18  2  0  0  0  0
 16 22  1  0  0  0  0
 17 23  1  0  0  0  0
 17 29  1  0  0  0  0
 18 19  1  0  0  0  0
 18 26  1  0  0  0  0
 19 20  2  0  0  0  0
 20  3  1  0  0  0  0
 20 21  1  0  0  0  0
 21  5  1  0  0  0  0
 21 22  2  0  0  0  0
 23 24  2  0  0  0  0
 24 30  1  0  0  0  0
 25 26  2  0  0  0  0
 25 30  1  0  0  0  0
 26 27  1  0  0  0  0
 27 28  2  0  0  0  0
 28 29  1  0  0  0  0
 29 30  2  0  0  0  0
M  END
>  <CHROM.1>
-176.35322626,59.31616906,170.47527924,67.58041451,179.69587692,175.61674478
-141.74380702,-165.35758380,-109.79076773,-73.39699648,68.60622803,-1.33647321
4.81365952,13.83836475,0.84761025,0.04745789,2.16884986

>  <Name>
1uts_lig

>  <RI>
0

>  <Rbt.Current_Directory>
/home/itssahil/PROJECTS/Mol_Feturizer/New_Systems/rnas/1uts

>  <Rbt.Executable>
rbdock ($Id: //depot/dev/client3/rdock/2013.1/src/exe/rbdock.cxx#4 $)

>  <Rbt.Library>
libRbt.so (2013.1, Build901 2013/11/27)

>  <Rbt.Parameter_File>
/export/apps/rDock/src/rDock_2013.1_src/data/scripts/dock_solv.prm

>  <Rbt.Receptor>
prm/pocket_docking_8.prm

>  <SCORE>
-40.4865

>  <SCORE.INTER>
-39.2198

>  <SCORE.INTER.CONST>
1

>  <SCORE.INTER.POLAR>
-2.46005

>  <SCORE.INTER.ROT>
10

>  <SCORE.INTER.SOLV>
9.63235

>  <SCORE.INTER.VDW>
-31.4238

>  <SCORE.INTER.norm>
-1.30733

>  <SCORE.INTRA>
-1.26672

>  <SCORE.INTRA.DIHEDRAL>
-3.95319

>  <SCORE.INTRA.DIHEDRAL.0>
18.0451

>  <SCORE.INTRA.POLAR>
0.196815

>  <SCORE.INTRA.POLAR.0>
-0.196815

>  <SCORE.INTRA.REPUL>
0

>  <SCORE.INTRA.REPUL.0>
0

>  <SCORE.INTRA.SOLV>
-0.504666

>  <SCORE.INTRA.SOLV.lig_0>
-14.7906

>  <SCORE.INTRA.VDW>
0.293035

>  <SCORE.INTRA.VDW.0>
-0.411701

>  <SCORE.INTRA.norm>
-0.0422241

>  <SCORE.RESTR>
0

>  <SCORE.RESTR.CAVITY>
0

>  <SCORE.RESTR.norm>
0

>  <SCORE.SYSTEM>
0

>  <SCORE.SYSTEM.CONST>
0

>  <SCORE.SYSTEM.DIHEDRAL>
0

>  <SCORE.SYSTEM.SOLV>
0

>  <SCORE.SYSTEM.norm>
0

>  <SCORE.heavy>
30

>  <SCORE.norm>
-1.34955

>  <RMSD>
10.445

$$$$
1uts_lig
 OpenBabel11021811413D
libRbt.so/2013.1/901 2013/11/27
 30 33  0  0  0  0  0  0  0  0999 V2000
   -7.4337    3.8208   14.4950 N   0  0  0  0  0  0  0  0  0  0  0  0
   -5.5528    2.4290   15.2449 C   0  0  0  0  0  0  0  0  0  0  0  0
   -1.9310    3.9204   13.1529 C   0  0  0  0  0  0  0  0  0  0  0  0
   -4.1900    2.5300   15.9362 C   0  0  0  0  0  0  0  0  0  0  0  0
   -3.5743    3.7806   15.5945 O   0  0  0  0  0  0  0  0  0  0  0  0
   -6.3513    3.7089   15.4987 C   0  0  0  0  0  0  0  0  0  0  0  0
   -1.9459    5.3509   12.7714 N   0  0  0  0  0  0  0  0  0  0  0  0
   -2.2452    5.4793   11.3206 C   0  0  0  0  0  0  0  0  0  0  0  0
   -2.6025    6.9318   10.9921 C   0  0  0  0  0  0  0  0  0  0  0  0
   -2.7272    7.0889    9.5256 N   0  0  0  0  0  0  0  0  0  0  0  0
   -1.4386    7.5974    8.9735 C   0  0  0  0  0  0  0  0  0  0  0  0
   -3.8341    8.0397    9.2227 C   0  0  0  0  0  0  0  0  0  0  0  0
   -1.5656    7.7655    7.4508 C   0  0  0  0  0  0  0  0  0  0  0  0
   -3.9597    8.2116    7.6982 C   0  0  0  0  0  0  0  0  0  0  0  0
   -2.6716    8.7173    7.1473 N   0  0  0  0  0  0  0  0  0  0  0  0
   -0.1453    3.4155   17.1242 C   0  0  0  0  0  0  0  0  0  0  0  0
    6.2730    3.2123   16.4905 N   0  0  0  0  0  0  0  0  0  0  0  0
    0.6784    3.4600   15.9741 C   0  0  0  0  0  0  0  0  0  0  0  0
    0.0932    3.6233   14.6902 C   0  0  0  0  0  0  0  0  0  0  0  0
   -1.3171    3.7455   14.5567 C   0  0  0  0  0  0  0  0  0  0  0  0
   -2.1471    3.6840   15.7163 C   0  0  0  0  0  0  0  0  0  0  0  0
   -1.5555    3.5235   16.9992 C   0  0  0  0  0  0  0  0  0  0  0  0
    6.5526    4.5024   15.9853 C   0  0  0  0  0  0  0  0  0  0  0  0
    5.3636    5.1632   15.6015 C   0  0  0  0  0  0  0  0  0  0  0  0
    2.9191    4.4054   15.7189 C   0  0  0  0  0  0  0  0  0  0  0  0
    2.0680    3.3374   16.1134 C   0  0  0  0  0  0  0  0  0  0  0  0
    2.6280    2.1481   16.6557 C   0  0  0  0  0  0  0  0  0  0  0  0
    4.0362    2.0287   16.8050 C   0  0  0  0  0  0  0  0  0  0  0  0
    4.8888    3.1103   16.4201 C   0  0  0  0  0  0  0  0  0  0  0  0
    4.3367    4.2875   15.8828 C   0  0  0  0  0  0  0  0  0  0  0  0
  1  6  1  0  0  0  0
  2  4  1  0  0  0  0
  3  7  1  0  0  0  0
  4  5  1  0  0  0  0
  6  2  1  0  0  0  0
  7  8  1  0  0  0  0
  8  9  1  0  0  0  0
  9 10  1  0  0  0  0
 10 11  1  0  0  0  0
 10 12  1  0  0  0  0
 11 13  1  0  0  0  0
 13 15  1  0  0  0  0
 14 12  1  0  0  0  0
 15 14  1  0  0  0  0
 16 18  2  0  0  0  0
 16 22  1  0  0  0  0
 17 23  1  0  0  0  0
 17 29  1  0  0  0  0
 18 19  1  0  0  0  0
 18 26  1  0  0  0  0
 19 20  2  0  0  0  0
 20  3  1  0  0  0  0
 20 21  1  0  0  0  0
 21  5  1  0  0  0  0
 21 22  2  0  0  0  0
 23 24  2  0  0  0  0
 24 30  1  0  0  0  0
 25 26  2  0  0  0  0
 25 30  1  0  0  0  0
 26 27  1  0  0  0  0
 27 28  2  0  0  0  0
 28 29  1  0  0  0  0
 29 30  2  0  0  0  0
M  END
>  <CHROM.1>
63.25436587,-49.57181642,167.24268499,-155.23307536,161.02710849,166.08506003
172.72455661,-95.89244423,-117.75799364,-86.25125634,112.11652810,-0.76698507
4.70124684,13.72589812,2.37870432,-0.07401235,-1.00622384

>  <Name>
1uts_lig

>  <RI>
0

>  <Rbt.Current_Directory>
/home/itssahil/PROJECTS/Mol_Feturizer/New_Systems/rnas/1uts

>  <Rbt.Executable>
rbdock ($Id: //depot/dev/client3/rdock/2013.1/src/exe/rbdock.cxx#4 $)

>  <Rbt.Library>
libRbt.so (2013.1, Build901 2013/11/27)

>  <Rbt.Parameter_File>
/export/apps/rDock/src/rDock_2013.1_src/data/scripts/dock_solv.prm

>  <Rbt.Receptor>
prm/pocket_docking_8.prm

>  <SCORE>
-41.6545

>  <SCORE.INTER>
-41.1056

>  <SCORE.INTER.CONST>
1

>  <SCORE.INTER.POLAR>
-2.95639

>  <SCORE.INTER.ROT>
10

>  <SCORE.INTER.SOLV>
9.89834

>  <SCORE.INTER.VDW>
-31.1152

>  <SCORE.INTER.norm>
-1.37019

>  <SCORE.INTRA>
-0.548874

>  <SCORE.INTRA.DIHEDRAL>
-1.73053

>  <SCORE.INTRA.DIHEDRAL.0>
18.0451

>  <SCORE.INTRA.POLAR>
0.196815

>  <SCORE.INTRA.POLAR.0>
-0.196815

>  <SCORE.INTRA.REPUL>
0

>  <SCORE.INTRA.REPUL.0>
0

>  <SCORE.INTRA.SOLV>
-0.542905

>  <SCORE.INTRA.SOLV.lig_0>
-14.7906

>  <SCORE.INTRA.VDW>
-0.0813264

>  <SCORE.INTRA.VDW.0>
-0.411701

>  <SCORE.INTRA.norm>
-0.0182958

>  <SCORE.RESTR>
0

>  <SCORE.RESTR.CAVITY>
0

>  <SCORE.RESTR.norm>
0

>  <SCORE.SYSTEM>
0

>  <SCORE.SYSTEM.CONST>
0

>  <SCORE.SYSTEM.DIHEDRAL>
0

>  <SCORE.SYSTEM.SOLV>
0

>  <SCORE.SYSTEM.norm>
0

>  <SCORE.heavy>
30

>  <SCORE.norm>
-1.38848

>  <RMSD>
10.486

$$$$
1uts_lig
 OpenBabel11021811413D
libRbt.so/2013.1/901 2013/11/27
 30 33  0  0  0  0  0  0  0  0999 V2000
   -7.8128    0.8992   13.4620 N   0  0  0  0  0  0  0  0  0  0  0  0
   -6.4657    2.8371   14.1453 C   0  0  0  0  0  0  0  0  0  0  0  0
   -1.5926    3.2362   12.8749 C   0  0  0  0  0  0  0  0  0  0  0  0
   -5.1400    2.9903   14.8965 C   0  0  0  0  0  0  0  0  0  0  0  0
   -4.2242    3.7517   14.0956 O   0  0  0  0  0  0  0  0  0  0  0  0
   -7.1788    1.5695   14.6196 C   0  0  0  0  0  0  0  0  0  0  0  0
   -1.3405    4.3160   11.8937 N   0  0  0  0  0  0  0  0  0  0  0  0
   -2.6231    4.7341   11.2684 C   0  0  0  0  0  0  0  0  0  0  0  0
   -2.3700    5.8798   10.2841 C   0  0  0  0  0  0  0  0  0  0  0  0
   -3.6479    6.2769    9.6514 N   0  0  0  0  0  0  0  0  0  0  0  0
   -4.0212    5.2668    8.6197 C   0  0  0  0  0  0  0  0  0  0  0  0
   -3.4944    7.6227    9.0300 C   0  0  0  0  0  0  0  0  0  0  0  0
   -5.3463    5.6780    7.9576 C   0  0  0  0  0  0  0  0  0  0  0  0
   -4.8195    8.0339    8.3633 C   0  0  0  0  0  0  0  0  0  0  0  0
   -5.1930    7.0234    7.3348 N   0  0  0  0  0  0  0  0  0  0  0  0
   -1.9908    4.9023   16.9098 C   0  0  0  0  0  0  0  0  0  0  0  0
    3.7286    5.9311   19.5773 N   0  0  0  0  0  0  0  0  0  0  0  0
   -0.7079    4.6526   16.3664 C   0  0  0  0  0  0  0  0  0  0  0  0
   -0.5860    4.1122   15.0585 C   0  0  0  0  0  0  0  0  0  0  0  0
   -1.7485    3.8241   14.2919 C   0  0  0  0  0  0  0  0  0  0  0  0
   -3.0414    4.0613   14.8481 C   0  0  0  0  0  0  0  0  0  0  0  0
   -3.1572    4.6053   16.1566 C   0  0  0  0  0  0  0  0  0  0  0  0
    3.1041    6.9405   20.3447 C   0  0  0  0  0  0  0  0  0  0  0  0
    1.7658    7.1330   19.9328 C   0  0  0  0  0  0  0  0  0  0  0  0
    0.3899    5.9544   18.1213 C   0  0  0  0  0  0  0  0  0  0  0  0
    0.4336    4.9379   17.1287 C   0  0  0  0  0  0  0  0  0  0  0  0
    1.6344    4.2067   16.9153 C   0  0  0  0  0  0  0  0  0  0  0  0
    2.7882    4.4905   17.6950 C   0  0  0  0  0  0  0  0  0  0  0  0
    2.7369    5.5043   18.7024 C   0  0  0  0  0  0  0  0  0  0  0  0
    1.5500    6.2292   18.9145 C   0  0  0  0  0  0  0  0  0  0  0  0
  1  6  1  0  0  0  0
  2  4  1  0  0  0  0
  3  7  1  0  0  0  0
  4  5  1  0  0  0  0
  6  2  1  0  0  0  0
  7  8  1  0  0  0  0
  8  9  1  0  0  0  0
  9 10  1  0  0  0  0
 10 11  1  0  0  0  0
 10 12  1  0  0  0  0
 11 13  1  0  0  0  0
 13 15  1  0  0  0  0
 14 12  1  0  0  0  0
 15 14  1  0  0  0  0
 16 18  2  0  0  0  0
 16 22  1  0  0  0  0
 17 23  1  0  0  0  0
 17 29  1  0  0  0  0
 18 19  1  0  0  0  0
 18 26  1  0  0  0  0
 19 20  2  0  0  0  0
 20  3  1  0  0  0  0
 20 21  1  0  0  0  0
 21  5  1  0  0  0  0
 21 22  2  0  0  0  0
 23 24  2  0  0  0  0
 24 30  1  0  0  0  0
 25 26  2  0  0  0  0
 25 30  1  0  0  0  0
 26 27  1  0  0  0  0
 27 28  2  0  0  0  0
 28 29  1  0  0  0  0
 29 30  2  0  0  0  0
M  END
>  <CHROM.1>
176.76369058,154.00541296,-94.85969845,172.29944755,-140.76716036,178.30358728
179.17431271,-76.13534423,-27.37597855,-82.94341490,131.06982497,-2.10225578
4.89210716,14.12491808,2.37527039,-0.55279147,-1.11655874

>  <Name>
1uts_lig

>  <RI>
0

>  <Rbt.Current_Directory>
/home/itssahil/PROJECTS/Mol_Feturizer/New_Systems/rnas/1uts

>  <Rbt.Executable>
rbdock ($Id: //depot/dev/client3/rdock/2013.1/src/exe/rbdock.cxx#4 $)

>  <Rbt.Library>
libRbt.so (2013.1, Build901 2013/11/27)

>  <Rbt.Parameter_File>
/export/apps/rDock/src/rDock_2013.1_src/data/scripts/dock_solv.prm

>  <Rbt.Receptor>
prm/pocket_docking_6.prm

>  <SCORE>
-32.0758

>  <SCORE.INTER>
-31.8866

>  <SCORE.INTER.CONST>
1

>  <SCORE.INTER.POLAR>
-2.09302

>  <SCORE.INTER.ROT>
10

>  <SCORE.INTER.SOLV>
8.30448

>  <SCORE.INTER.VDW>
-27.3158

>  <SCORE.INTER.norm>
-1.06289

>  <SCORE.INTRA>
-0.225937

>  <SCORE.INTRA.DIHEDRAL>
-4.1418

>  <SCORE.INTRA.DIHEDRAL.0>
18.0451

>  <SCORE.INTRA.POLAR>
0.196815

>  <SCORE.INTRA.POLAR.0>
-0.196815

>  <SCORE.INTRA.REPUL>
0

>  <SCORE.INTRA.REPUL.0>
0

>  <SCORE.INTRA.SOLV>
-0.583593

>  <SCORE.INTRA.SOLV.lig_0>
-14.7906

>  <SCORE.INTRA.VDW>
1.46759

>  <SCORE.INTRA.VDW.0>
-0.411701

>  <SCORE.INTRA.norm>
-0.00753124

>  <SCORE.RESTR>
0.0366546

>  <SCORE.RESTR.CAVITY>
0.0366546

>  <SCORE.RESTR.norm>
0.00122182

>  <SCORE.SYSTEM>
0

>  <SCORE.SYSTEM.CONST>
0

>  <SCORE.SYSTEM.DIHEDRAL>
0

>  <SCORE.SYSTEM.SOLV>
0

>  <SCORE.SYSTEM.norm>
0

>  <SCORE.heavy>
30

>  <SCORE.norm>
-1.06919

>  <RMSD>
10.528

$$$$
1uts_lig
 OpenBabel11021811413D
libRbt.so/2013.1/901 2013/11/27
 30 33  0  0  0  0  0  0  0  0999 V2000
   -8.1953    3.3185   13.9370 N   0  0  0  0  0  0  0  0  0  0  0  0
   -6.4263    3.8672   15.5515 C   0  0  0  0  0  0  0  0  0  0  0  0
   -2.4001    4.0032   12.5626 C   0  0  0  0  0  0  0  0  0  0  0  0
   -4.9376    3.6903   15.8644 C   0  0  0  0  0  0  0  0  0  0  0  0
   -4.1588    4.4034   14.8925 O   0  0  0  0  0  0  0  0  0  0  0  0
   -6.7362    3.2633   14.1806 C   0  0  0  0  0  0  0  0  0  0  0  0
   -1.4325    4.6855   11.6736 N   0  0  0  0  0  0  0  0  0  0  0  0
   -2.1392    5.2165   10.4779 C   0  0  0  0  0  0  0  0  0  0  0  0
   -2.8731    6.5104   10.8424 C   0  0  0  0  0  0  0  0  0  0  0  0
   -3.7398    6.9195    9.7144 N   0  0  0  0  0  0  0  0  0  0  0  0
   -2.9183    7.6369    8.6973 C   0  0  0  0  0  0  0  0  0  0  0  0
   -4.8272    7.8032   10.2220 C   0  0  0  0  0  0  0  0  0  0  0  0
   -3.8161    8.0669    7.5258 C   0  0  0  0  0  0  0  0  0  0  0  0
   -5.7246    8.2375    9.0492 C   0  0  0  0  0  0  0  0  0  0  0  0
   -4.9030    8.9517    8.0327 N   0  0  0  0  0  0  0  0  0  0  0  0
   -0.8645    3.9253   16.6676 C   0  0  0  0  0  0  0  0  0  0  0  0
    5.4168    2.4980   16.5413 N   0  0  0  0  0  0  0  0  0  0  0  0
    0.0108    3.7107   15.5762 C   0  0  0  0  0  0  0  0  0  0  0  0
   -0.4935    3.7368   14.2486 C   0  0  0  0  0  0  0  0  0  0  0  0
   -1.8742    3.9809   14.0121 C   0  0  0  0  0  0  0  0  0  0  0  0
   -2.7580    4.1809   15.1148 C   0  0  0  0  0  0  0  0  0  0  0  0
   -2.2470    4.1567   16.4415 C   0  0  0  0  0  0  0  0  0  0  0  0
    5.2382    1.1282   16.8404 C   0  0  0  0  0  0  0  0  0  0  0  0
    3.8721    0.7713   16.7771 C   0  0  0  0  0  0  0  0  0  0  0  0
    1.8054    2.1705   16.1982 C   0  0  0  0  0  0  0  0  0  0  0  0
    1.3706    3.4691   15.8173 C   0  0  0  0  0  0  0  0  0  0  0  0
    2.3177    4.5203   15.6746 C   0  0  0  0  0  0  0  0  0  0  0  0
    3.6969    4.2718   15.9103 C   0  0  0  0  0  0  0  0  0  0  0  0
    4.1329    2.9610   16.2798 C   0  0  0  0  0  0  0  0  0  0  0  0
    3.1973    1.9199   16.4221 C   0  0  0  0  0  0  0  0  0  0  0  0
  1  6  1  0  0  0  0
  2  4  1  0  0  0  0
  3  7  1  0  0  0  0
  4  5  1  0  0  0  0
  6  2  1  0  0  0  0
  7  8  1  0  0  0  0
  8  9  1  0  0  0  0
  9 10  1  0  0  0  0
 10 11  1  0  0  0  0
 10 12  1  0  0  0  0
 11 13  1  0  0  0  0
 13 15  1  0  0  0  0
 14 12  1  0  0  0  0
 15 14  1  0  0  0  0
 16 18  2  0  0  0  0
 16 22  1  0  0  0  0
 17 23  1  0  0  0  0
 17 29  1  0  0  0  0
 18 19  1  0  0  0  0
 18 26  1  0  0  0  0
 19 20  2  0  0  0  0
 20  3  1  0  0  0  0
 20 21  1  0  0  0  0
 21  5  1  0  0  0  0
 21 22  2  0  0  0  0
 23 24  2  0  0  0  0
 24 30  1  0  0  0  0
 25 26  2  0  0  0  0
 25 30  1  0  0  0  0
 26 27  1  0  0  0  0
 27 28  2  0  0  0  0
 28 29  1  0  0  0  0
 29 30  2  0  0  0  0
M  END
>  <CHROM.1>
-76.25334281,62.41461603,-155.91041649,-176.28012950,174.60381146,78.23525588
-171.30163972,-81.61602453,80.39575396,-39.98024906,139.37040597,-1.60331216
4.54270236,13.59002947,2.40061964,0.02201651,-0.98906300

>  <Name>
1uts_lig

>  <RI>
0

>  <Rbt.Current_Directory>
/home/itssahil/PROJECTS/Mol_Feturizer/New_Systems/rnas/1uts

>  <Rbt.Executable>
rbdock ($Id: //depot/dev/client3/rdock/2013.1/src/exe/rbdock.cxx#4 $)

>  <Rbt.Library>
libRbt.so (2013.1, Build901 2013/11/27)

>  <Rbt.Parameter_File>
/export/apps/rDock/src/rDock_2013.1_src/data/scripts/dock_solv.prm

>  <Rbt.Receptor>
prm/pocket_docking_7.prm

>  <SCORE>
-37.785

>  <SCORE.INTER>
-36.7652

>  <SCORE.INTER.CONST>
1

>  <SCORE.INTER.POLAR>
-1.52447

>  <SCORE.INTER.ROT>
10

>  <SCORE.INTER.SOLV>
11.2927

>  <SCORE.INTER.VDW>
-33.4595

>  <SCORE.INTER.norm>
-1.22551

>  <SCORE.INTRA>
-1.01984

>  <SCORE.INTRA.DIHEDRAL>
-6.43116

>  <SCORE.INTRA.DIHEDRAL.0>
18.0451

>  <SCORE.INTRA.POLAR>
0.196815

>  <SCORE.INTRA.POLAR.0>
-0.196815

>  <SCORE.INTRA.REPUL>
0

>  <SCORE.INTRA.REPUL.0>
0

>  <SCORE.INTRA.SOLV>
-0.622604

>  <SCORE.INTRA.SOLV.lig_0>
-14.7906

>  <SCORE.INTRA.VDW>
1.83787

>  <SCORE.INTRA.VDW.0>
-0.411701

>  <SCORE.INTRA.norm>
-0.0339946

>  <SCORE.RESTR>
0

>  <SCORE.RESTR.CAVITY>
0

>  <SCORE.RESTR.norm>
0

>  <SCORE.SYSTEM>
0

>  <SCORE.SYSTEM.CONST>
0

>  <SCORE.SYSTEM.DIHEDRAL>
0

>  <SCORE.SYSTEM.SOLV>
0

>  <SCORE.SYSTEM.norm>
0

>  <SCORE.heavy>
30

>  <SCORE.norm>
-1.2595

>  <RMSD>
10.569

$$$$
1uts_lig
 OpenBabel11021811413D
libRbt.so/2013.1/901 2013/11/27
 30 33  0  0  0  0  0  0  0  0999 V2000
  -10.1718    3.1646   13.6527 N   0  0  0  0  0  0  0  0  0  0  0  0
   -7.7447    3.2804   14.0174 C   0  0  0  0  0  0  0  0  0  0  0  0
   -2.8337    4.1350   13.3806 C   0  0  0  0  0  0  0  0  0  0  0  0
   -6.5469    2.5510   14.6325 C   0  0  0  0  0  0  0  0  0  0  0  0
   -5.4058    3.4215   14.6281 O   0  0  0  0  0  0  0  0  0  0  0  0
   -9.0264    2.4999   14.3143 C   0  0  0  0  0  0  0  0  0  0  0  0
   -1.9247    3.7151   12.2900 N   0  0  0  0  0  0  0  0  0  0  0  0
   -1.7468    4.8343   11.3274 C   0  0  0  0  0  0  0  0  0  0  0  0
   -3.0471    5.0609   10.5506 C   0  0  0  0  0  0  0  0  0  0  0  0
   -3.0823    6.4512   10.0440 N   0  0  0  0  0  0  0  0  0  0  0  0
   -4.4342    6.7368    9.4830 C   0  0  0  0  0  0  0  0  0  0  0  0
   -2.0375    6.6215    8.9951 C   0  0  0  0  0  0  0  0  0  0  0  0
   -4.4734    8.1790    8.9522 C   0  0  0  0  0  0  0  0  0  0  0  0
   -2.0782    8.0643    8.4601 C   0  0  0  0  0  0  0  0  0  0  0  0
   -3.4294    8.3495    7.9022 N   0  0  0  0  0  0  0  0  0  0  0  0
   -3.1565    0.9402   16.3645 C   0  0  0  0  0  0  0  0  0  0  0  0
    2.7761   -1.4939   17.2730 N   0  0  0  0  0  0  0  0  0  0  0  0
   -1.9048    1.2400   15.7756 C   0  0  0  0  0  0  0  0  0  0  0  0
   -1.8073    2.2762   14.8090 C   0  0  0  0  0  0  0  0  0  0  0  0
   -2.9624    3.0155   14.4332 C   0  0  0  0  0  0  0  0  0  0  0  0
   -4.2266    2.7006   15.0163 C   0  0  0  0  0  0  0  0  0  0  0  0
   -4.3175    1.6644   15.9857 C   0  0  0  0  0  0  0  0  0  0  0  0
    3.6844   -0.4443   17.0067 C   0  0  0  0  0  0  0  0  0  0  0  0
    3.0105    0.6917   16.5038 C   0  0  0  0  0  0  0  0  0  0  0  0
    0.5189    1.0979   16.0665 C   0  0  0  0  0  0  0  0  0  0  0  0
   -0.7706    0.5059   16.1501 C   0  0  0  0  0  0  0  0  0  0  0  0
   -0.9087   -0.8290   16.6204 C   0  0  0  0  0  0  0  0  0  0  0  0
    0.2409   -1.5689   17.0084 C   0  0  0  0  0  0  0  0  0  0  0  0
    1.5355   -0.9658   16.9364 C   0  0  0  0  0  0  0  0  0  0  0  0
    1.6741    0.3546   16.4707 C   0  0  0  0  0  0  0  0  0  0  0  0
  1  6  1  0  0  0  0
  2  4  1  0  0  0  0
  3  7  1  0  0  0  0
  4  5  1  0  0  0  0
  6  2  1  0  0  0  0
  7  8  1  0  0  0  0
  8  9  1  0  0  0  0
  9 10  1  0  0  0  0
 10 11  1  0  0  0  0
 10 12  1  0  0  0  0
 11 13  1  0  0  0  0
 13 15  1  0  0  0  0
 14 12  1  0  0  0  0
 15 14  1  0  0  0  0
 16 18  2  0  0  0  0
 16 22  1  0  0  0  0
 17 23  1  0  0  0  0
 17 29  1  0  0  0  0
 18 19  1  0  0  0  0
 18 26  1  0  0  0  0
 19 20  2  0  0  0  0
 20  3  1  0  0  0  0
 20 21  1  0  0  0  0
 21  5  1  0  0  0  0
 21 22  2  0  0  0  0
 23 24  2  0  0  0  0
 24 30  1  0  0  0  0
 25 26  2  0  0  0  0
 25 30  1  0  0  0  0
 26 27  1  0  0  0  0
 27 28  2  0  0  0  0
 28 29  1  0  0  0  0
 29 30  2  0  0  0  0
M  END
>  <CHROM.1>
-43.87523631,-166.71401340,-176.59431279,-171.55834937,-176.75498765,-69.96884824
156.40317202,-170.90961315,-152.51640446,40.42225121,145.10944115,-2.63006902
3.00504826,13.69315700,2.11939339,0.07116169,-0.82204020

>  <Name>
1uts_lig

>  <RI>
0

>  <Rbt.Current_Directory>
/home/itssahil/PROJECTS/Mol_Feturizer/New_Systems/rnas/1uts

>  <Rbt.Executable>
rbdock ($Id: //depot/dev/client3/rdock/2013.1/src/exe/rbdock.cxx#4 $)

>  <Rbt.Library>
libRbt.so (2013.1, Build901 2013/11/27)

>  <Rbt.Parameter_File>
/export/apps/rDock/src/rDock_2013.1_src/data/scripts/dock_solv.prm

>  <Rbt.Receptor>
prm/pocket_docking_6.prm

>  <SCORE>
-29.0883

>  <SCORE.INTER>
-28.7515

>  <SCORE.INTER.CONST>
1

>  <SCORE.INTER.POLAR>
-0.899903

>  <SCORE.INTER.ROT>
10

>  <SCORE.INTER.SOLV>
8.85826

>  <SCORE.INTER.VDW>
-29.3874

>  <SCORE.INTER.norm>
-0.958382

>  <SCORE.INTRA>
-0.645315

>  <SCORE.INTRA.DIHEDRAL>
-10.8347

>  <SCORE.INTRA.DIHEDRAL.0>
18.0451

>  <SCORE.INTRA.POLAR>
0.196815

>  <SCORE.INTRA.POLAR.0>
-0.196815

>  <SCORE.INTRA.REPUL>
0

>  <SCORE.INTRA.REPUL.0>
0

>  <SCORE.INTRA.SOLV>
-0.661789

>  <SCORE.INTRA.SOLV.lig_0>
-14.7906

>  <SCORE.INTRA.VDW>
4.43375

>  <SCORE.INTRA.VDW.0>
-0.411701

>  <SCORE.INTRA.norm>
-0.0215105

>  <SCORE.RESTR>
0.308502

>  <SCORE.RESTR.CAVITY>
0.308502

>  <SCORE.RESTR.norm>
0.0102834

>  <SCORE.SYSTEM>
0

>  <SCORE.SYSTEM.CONST>
0

>  <SCORE.SYSTEM.DIHEDRAL>
0

>  <SCORE.SYSTEM.SOLV>
0

>  <SCORE.SYSTEM.norm>
0

>  <SCORE.heavy>
30

>  <SCORE.norm>
-0.969609

>  <RMSD>
10.624

$$$$
1uts_lig
 OpenBabel11021811413D
libRbt.so/2013.1/901 2013/11/27
 30 33  0  0  0  0  0  0  0  0999 V2000
   -2.9213    7.7035   10.5659 N   0  0  0  0  0  0  0  0  0  0  0  0
   -4.3207    6.3078    9.1061 C   0  0  0  0  0  0  0  0  0  0  0  0
   -5.6078    3.6552   13.5263 C   0  0  0  0  0  0  0  0  0  0  0  0
   -4.0505    4.9755    9.8113 C   0  0  0  0  0  0  0  0  0  0  0  0
   -4.5324    5.0452   11.1614 O   0  0  0  0  0  0  0  0  0  0  0  0
   -3.0739    7.1907    9.1856 C   0  0  0  0  0  0  0  0  0  0  0  0
   -5.8618    2.7637   14.6807 N   0  0  0  0  0  0  0  0  0  0  0  0
   -7.3220    2.5139   14.8089 C   0  0  0  0  0  0  0  0  0  0  0  0
   -8.0005    3.7273   15.4514 C   0  0  0  0  0  0  0  0  0  0  0  0
   -9.4701    3.5710   15.3689 N   0  0  0  0  0  0  0  0  0  0  0  0
   -9.8747    2.3309   16.0916 C   0  0  0  0  0  0  0  0  0  0  0  0
   -9.8794    3.4960   13.9379 C   0  0  0  0  0  0  0  0  0  0  0  0
  -11.4003    2.1632   16.0047 C   0  0  0  0  0  0  0  0  0  0  0  0
  -11.4066    3.3243   13.8497 C   0  0  0  0  0  0  0  0  0  0  0  0
  -11.8102    2.0869   14.5737 N   0  0  0  0  0  0  0  0  0  0  0  0
   -1.3114    3.7840   12.6668 C   0  0  0  0  0  0  0  0  0  0  0  0
    1.9881    0.8881   17.3446 N   0  0  0  0  0  0  0  0  0  0  0  0
   -1.7861    3.1208   13.8235 C   0  0  0  0  0  0  0  0  0  0  0  0
   -3.1795    3.0832   14.0963 C   0  0  0  0  0  0  0  0  0  0  0  0
   -4.0995    3.7070   13.2095 C   0  0  0  0  0  0  0  0  0  0  0  0
   -3.6174    4.3893   12.0523 C   0  0  0  0  0  0  0  0  0  0  0  0
   -2.2217    4.4209   11.7827 C   0  0  0  0  0  0  0  0  0  0  0  0
    2.8731    1.9898   17.3740 C   0  0  0  0  0  0  0  0  0  0  0  0
    2.4120    3.0307   16.5364 C   0  0  0  0  0  0  0  0  0  0  0  0
    0.3058    3.1994   15.0873 C   0  0  0  0  0  0  0  0  0  0  0  0
   -0.8729    2.5093   14.6940 C   0  0  0  0  0  0  0  0  0  0  0  0
   -1.1273    1.2011   15.1902 C   0  0  0  0  0  0  0  0  0  0  0  0
   -0.2054    0.5860   16.0797 C   0  0  0  0  0  0  0  0  0  0  0  0
    0.9726    1.2884   16.4845 C   0  0  0  0  0  0  0  0  0  0  0  0
    1.2263    2.5825   15.9942 C   0  0  0  0  0  0  0  0  0  0  0  0
  1  6  1  0  0  0  0
  2  4  1  0  0  0  0
  3  7  1  0  0  0  0
  4  5  1  0  0  0  0
  6  2  1  0  0  0  0
  7  8  1  0  0  0  0
  8  9  1  0  0  0  0
  9 10  1  0  0  0  0
 10 11  1  0  0  0  0
 10 12  1  0  0  0  0
 11 13  1  0  0  0  0
 13 15  1  0  0  0  0
 14 12  1  0  0  0  0
 15 14  1  0  0  0  0
 16 18  2  0  0  0  0
 16 22  1  0  0  0  0
 17 23  1  0  0  0  0
 17 29  1  0  0  0  0
 18 19  1  0  0  0  0
 18 26  1  0  0  0  0
 19 20  2  0  0  0  0
 20  3  1  0  0  0  0
 20 21  1  0  0  0  0
 21  5  1  0  0  0  0
 21 22  2  0  0  0  0
 23 24  2  0  0  0  0
 24 30  1  0  0  0  0
 25 26  2  0  0  0  0
 25 30  1  0  0  0  0
 26 27  1  0  0  0  0
 27 28  2  0  0  0  0
 28 29  1  0  0  0  0
 29 30  2  0  0  0  0
M  END
>  <CHROM.1>
68.89653060,95.53536757,-169.04946253,-140.27566999,-73.16954218,-77.76438532
170.53981235,59.99388488,45.68079387,-7.57133783,-146.84491600,-4.12800805
3.40334632,13.97453022,-0.12214775,-0.00407394,-0.95178417

>  <Name>
1uts_lig

>  <RI>
0

>  <Rbt.Current_Directory>
/home/itssahil/PROJECTS/Mol_Feturizer/New_Systems/rnas/1uts

>  <Rbt.Executable>
rbdock ($Id: //depot/dev/client3/rdock/2013.1/src/exe/rbdock.cxx#4 $)

>  <Rbt.Library>
libRbt.so (2013.1, Build901 2013/11/27)

>  <Rbt.Parameter_File>
/export/apps/rDock/src/rDock_2013.1_src/data/scripts/dock_solv.prm

>  <Rbt.Receptor>
prm/pocket_docking_7.prm

>  <SCORE>
-27.2614

>  <SCORE.INTER>
-32.525

>  <SCORE.INTER.CONST>
1

>  <SCORE.INTER.POLAR>
-1.64086

>  <SCORE.INTER.ROT>
10

>  <SCORE.INTER.SOLV>
10.3018

>  <SCORE.INTER.VDW>
-29.9144

>  <SCORE.INTER.norm>
-1.08417

>  <SCORE.INTRA>
5.26367

>  <SCORE.INTRA.DIHEDRAL>
-2.3694

>  <SCORE.INTRA.DIHEDRAL.0>
18.0451

>  <SCORE.INTRA.POLAR>
0.196815

>  <SCORE.INTRA.POLAR.0>
-0.196815

>  <SCORE.INTRA.REPUL>
0

>  <SCORE.INTRA.REPUL.0>
0

>  <SCORE.INTRA.SOLV>
-0.0362212

>  <SCORE.INTRA.SOLV.lig_0>
-14.7906

>  <SCORE.INTRA.VDW>
5.79731

>  <SCORE.INTRA.VDW.0>
-0.411701

>  <SCORE.INTRA.norm>
0.175456

>  <SCORE.RESTR>
0

>  <SCORE.RESTR.CAVITY>
0

>  <SCORE.RESTR.norm>
0

>  <SCORE.SYSTEM>
0

>  <SCORE.SYSTEM.CONST>
0

>  <SCORE.SYSTEM.DIHEDRAL>
0

>  <SCORE.SYSTEM.SOLV>
0

>  <SCORE.SYSTEM.norm>
0

>  <SCORE.heavy>
30

>  <SCORE.norm>
-0.908712

>  <RMSD>
10.686

$$$$
1uts_lig
 OpenBabel11021811413D
libRbt.so/2013.1/901 2013/11/27
 30 33  0  0  0  0  0  0  0  0999 V2000
   -2.2334    7.2241   11.4077 N   0  0  0  0  0  0  0  0  0  0  0  0
   -2.5243    5.2075   10.0345 C   0  0  0  0  0  0  0  0  0  0  0  0
   -5.2992    3.5514   13.5870 C   0  0  0  0  0  0  0  0  0  0  0  0
   -3.6382    4.5961   10.8892 C   0  0  0  0  0  0  0  0  0  0  0  0
   -3.1230    3.4624   11.6027 O   0  0  0  0  0  0  0  0  0  0  0  0
   -1.5646    5.9927   10.9303 C   0  0  0  0  0  0  0  0  0  0  0  0
   -6.1638    3.6766   14.7824 N   0  0  0  0  0  0  0  0  0  0  0  0
   -7.5423    3.2271   14.4528 C   0  0  0  0  0  0  0  0  0  0  0  0
   -8.5203    3.7331   15.5172 C   0  0  0  0  0  0  0  0  0  0  0  0
   -9.8551    3.1382   15.2823 N   0  0  0  0  0  0  0  0  0  0  0  0
  -10.3782    3.6065   13.9666 C   0  0  0  0  0  0  0  0  0  0  0  0
  -10.7765    3.5419   16.3818 C   0  0  0  0  0  0  0  0  0  0  0  0
  -11.7664    2.9936   13.7208 C   0  0  0  0  0  0  0  0  0  0  0  0
  -12.1680    2.9318   16.1348 C   0  0  0  0  0  0  0  0  0  0  0  0
  -12.6888    3.3981   14.8196 N   0  0  0  0  0  0  0  0  0  0  0  0
   -1.1539    4.5033   14.6475 C   0  0  0  0  0  0  0  0  0  0  0  0
   -0.6496    6.1798   20.7969 N   0  0  0  0  0  0  0  0  0  0  0  0
   -2.1734    4.5754   15.6267 C   0  0  0  0  0  0  0  0  0  0  0  0
   -3.5146    4.2661   15.2762 C   0  0  0  0  0  0  0  0  0  0  0  0
   -3.8361    3.8812   13.9456 C   0  0  0  0  0  0  0  0  0  0  0  0
   -2.8092    3.8249   12.9560 C   0  0  0  0  0  0  0  0  0  0  0  0
   -1.4679    4.1327   13.3133 C   0  0  0  0  0  0  0  0  0  0  0  0
    0.7255    6.3618   20.5254 C   0  0  0  0  0  0  0  0  0  0  0  0
    1.0210    6.0456   19.1799 C   0  0  0  0  0  0  0  0  0  0  0  0
   -0.5037    5.2681   17.2734 C   0  0  0  0  0  0  0  0  0  0  0  0
   -1.8490    4.9571   16.9361 C   0  0  0  0  0  0  0  0  0  0  0  0
   -2.8656    5.0404   17.9270 C   0  0  0  0  0  0  0  0  0  0  0  0
   -2.5370    5.4364   19.2516 C   0  0  0  0  0  0  0  0  0  0  0  0
   -1.1849    5.7621   19.5844 C   0  0  0  0  0  0  0  0  0  0  0  0
   -0.1777    5.6796   18.6056 C   0  0  0  0  0  0  0  0  0  0  0  0
  1  6  1  0  0  0  0
  2  4  1  0  0  0  0
  3  7  1  0  0  0  0
  4  5  1  0  0  0  0
  6  2  1  0  0  0  0
  7  8  1  0  0  0  0
  8  9  1  0  0  0  0
  9 10  1  0  0  0  0
 10 11  1  0  0  0  0
 10 12  1  0  0  0  0
 11 13  1  0  0  0  0
 13 15  1  0  0  0  0
 14 12  1  0  0  0  0
 15 14  1  0  0  0  0
 16 18  2  0  0  0  0
 16 22  1  0  0  0  0
 17 23  1  0  0  0  0
 17 29  1  0  0  0  0
 18 19  1  0  0  0  0
 18 26  1  0  0  0  0
 19 20  2  0  0  0  0
 20  3  1  0  0  0  0
 20 21  1  0  0  0  0
 21  5  1  0  0  0  0
 21 22  2  0  0  0  0
 23 24  2  0  0  0  0
 24 30  1  0  0  0  0
 25 26  2  0  0  0  0
 25 30  1  0  0  0  0
 26 27  1  0  0  0  0
 27 28  2  0  0  0  0
 28 29  1  0  0  0  0
 29 30  2  0  0  0  0
M  END
>  <CHROM.1>
-42.67309343,-75.55026413,-174.45665098,99.82619370,-71.11758883,-163.15426513
-172.67332169,-63.63440312,-0.02330298,-1.23130342,81.41853337,-4.53933239
4.52887408,15.21399027,-0.27283124,-0.21731113,-1.61946403

>  <Name>
1uts_lig

>  <RI>
0

>  <Rbt.Current_Directory>
/home/itssahil/PROJECTS/Mol_Feturizer/New_Systems/rnas/1uts

>  <Rbt.Executable>
rbdock ($Id: //depot/dev/client3/rdock/2013.1/src/exe/rbdock.cxx#4 $)

>  <Rbt.Library>
libRbt.so (2013.1, Build901 2013/11/27)

>  <Rbt.Parameter_File>
/export/apps/rDock/src/rDock_2013.1_src/data/scripts/dock_solv.prm

>  <Rbt.Receptor>
prm/pocket_docking_8.prm

>  <SCORE>
-39.2122

>  <SCORE.INTER>
-40.2981

>  <SCORE.INTER.CONST>
1

>  <SCORE.INTER.POLAR>
-2.09335

>  <SCORE.INTER.ROT>
10

>  <SCORE.INTER.SOLV>
11.4274

>  <SCORE.INTER.VDW>
-33.9634

>  <SCORE.INTER.norm>
-1.34327

>  <SCORE.INTRA>
1.06526

>  <SCORE.INTRA.DIHEDRAL>
-4.272

>  <SCORE.INTRA.DIHEDRAL.0>
18.0451

>  <SCORE.INTRA.POLAR>
0.196815

>  <SCORE.INTRA.POLAR.0>
-0.196815

>  <SCORE.INTRA.REPUL>
0

>  <SCORE.INTRA.REPUL.0>
0

>  <SCORE.INTRA.SOLV>
-0.249479

>  <SCORE.INTRA.SOLV.lig_0>
-14.7906

>  <SCORE.INTRA.VDW>
2.65683

>  <SCORE.INTRA.VDW.0>
-0.411701

>  <SCORE.INTRA.norm>
0.0355087

>  <SCORE.RESTR>
0.0206242

>  <SCORE.RESTR.CAVITY>
0.0206242

>  <SCORE.RESTR.norm>
0.000687473

>  <SCORE.SYSTEM>
0

>  <SCORE.SYSTEM.CONST>
0

>  <SCORE.SYSTEM.DIHEDRAL>
0

>  <SCORE.SYSTEM.SOLV>
0

>  <SCORE.SYSTEM.norm>
0

>  <SCORE.heavy>
30

>  <SCORE.norm>
-1.30707

>  <RMSD>
10.687

$$$$
1uts_lig
 OpenBabel11021811413D
libRbt.so/2013.1/901 2013/11/27
 30 33  0  0  0  0  0  0  0  0999 V2000
   -9.1189    2.8936   13.2653 N   0  0  0  0  0  0  0  0  0  0  0  0
   -7.2639    3.3704   14.8044 C   0  0  0  0  0  0  0  0  0  0  0  0
   -2.6552    4.4711   12.5325 C   0  0  0  0  0  0  0  0  0  0  0  0
   -5.7823    3.0908   15.0724 C   0  0  0  0  0  0  0  0  0  0  0  0
   -4.9793    3.9720   14.2734 O   0  0  0  0  0  0  0  0  0  0  0  0
   -7.6506    2.8100   13.4345 C   0  0  0  0  0  0  0  0  0  0  0  0
   -2.0989    5.7485   12.0316 N   0  0  0  0  0  0  0  0  0  0  0  0
   -1.8487    5.6466   10.5694 C   0  0  0  0  0  0  0  0  0  0  0  0
   -2.5344    6.8085    9.8445 C   0  0  0  0  0  0  0  0  0  0  0  0
   -3.9858    6.5370    9.7416 N   0  0  0  0  0  0  0  0  0  0  0  0
   -4.2874    5.9759    8.3933 C   0  0  0  0  0  0  0  0  0  0  0  0
   -4.7419    7.8027    9.9591 C   0  0  0  0  0  0  0  0  0  0  0  0
   -5.7949    5.6962    8.2813 C   0  0  0  0  0  0  0  0  0  0  0  0
   -6.2515    7.5247    9.8435 C   0  0  0  0  0  0  0  0  0  0  0  0
   -6.5515    6.9620    8.4976 N   0  0  0  0  0  0  0  0  0  0  0  0
   -2.2842    4.2738   16.8958 C   0  0  0  0  0  0  0  0  0  0  0  0
    3.9911    5.0966   18.3171 N   0  0  0  0  0  0  0  0  0  0  0  0
   -1.1397    4.4978   16.0937 C   0  0  0  0  0  0  0  0  0  0  0  0
   -1.2669    4.5602   14.6804 C   0  0  0  0  0  0  0  0  0  0  0  0
   -2.5407    4.4014   14.0687 C   0  0  0  0  0  0  0  0  0  0  0  0
   -3.6909    4.1593   14.8784 C   0  0  0  0  0  0  0  0  0  0  0  0
   -3.5580    4.1010   16.2929 C   0  0  0  0  0  0  0  0  0  0  0  0
    4.7243    4.7168   17.1699 C   0  0  0  0  0  0  0  0  0  0  0  0
    3.8578    4.3722   16.1078 C   0  0  0  0  0  0  0  0  0  0  0  0
    1.2994    4.3730   15.9722 C   0  0  0  0  0  0  0  0  0  0  0  0
    0.1131    4.6520   16.7039 C   0  0  0  0  0  0  0  0  0  0  0  0
    0.1996    5.0942   18.0527 C   0  0  0  0  0  0  0  0  0  0  0  0
    1.4704    5.2589   18.6671 C   0  0  0  0  0  0  0  0  0  0  0  0
    2.6624    4.9907   17.9239 C   0  0  0  0  0  0  0  0  0  0  0  0
    2.5788    4.5526   16.5896 C   0  0  0  0  0  0  0  0  0  0  0  0
  1  6  1  0  0  0  0
  2  4  1  0  0  0  0
  3  7  1  0  0  0  0
  4  5  1  0  0  0  0
  6  2  1  0  0  0  0
  7  8  1  0  0  0  0
  8  9  1  0  0  0  0
  9 10  1  0  0  0  0
 10 11  1  0  0  0  0
 10 12  1  0  0  0  0
 11 13  1  0  0  0  0
 13 15  1  0  0  0  0
 14 12  1  0  0  0  0
 15 14  1  0  0  0  0
 16 18  2  0  0  0  0
 16 22  1  0  0  0  0
 17 23  1  0  0  0  0
 17 29  1  0  0  0  0
 18 19  1  0  0  0  0
 18 26  1  0  0  0  0
 19 20  2  0  0  0  0
 20  3  1  0  0  0  0
 20 21  1  0  0  0  0
 21  5  1  0  0  0  0
 21 22  2  0  0  0  0
 23 24  2  0  0  0  0
 24 30  1  0  0  0  0
 25 26  2  0  0  0  0
 25 30  1  0  0  0  0
 26 27  1  0  0  0  0
 27 28  2  0  0  0  0
 28 29  1  0  0  0  0
 29 30  2  0  0  0  0
M  END
>  <CHROM.1>
59.49843210,74.13186979,163.60902192,155.18134732,171.35672516,126.94208974
-77.20394374,-97.94803851,156.11496701,-55.91214582,149.24311980,-2.49284992
4.96672350,13.81414032,2.48623008,-0.24372164,-1.14831168

>  <Name>
1uts_lig

>  <RI>
0

>  <Rbt.Current_Directory>
/home/itssahil/PROJECTS/Mol_Feturizer/New_Systems/rnas/1uts

>  <Rbt.Executable>
rbdock ($Id: //depot/dev/client3/rdock/2013.1/src/exe/rbdock.cxx#4 $)

>  <Rbt.Library>
libRbt.so (2013.1, Build901 2013/11/27)

>  <Rbt.Parameter_File>
/export/apps/rDock/src/rDock_2013.1_src/data/scripts/dock_solv.prm

>  <Rbt.Receptor>
prm/pocket_docking_6.prm

>  <SCORE>
-41.256

>  <SCORE.INTER>
-43.0418

>  <SCORE.INTER.CONST>
1

>  <SCORE.INTER.POLAR>
-2.31459

>  <SCORE.INTER.ROT>
10

>  <SCORE.INTER.SOLV>
10.024

>  <SCORE.INTER.VDW>
-34.5872

>  <SCORE.INTER.norm>
-1.43473

>  <SCORE.INTRA>
1.78577

>  <SCORE.INTRA.DIHEDRAL>
-3.91497

>  <SCORE.INTRA.DIHEDRAL.0>
18.0451

>  <SCORE.INTRA.POLAR>
0.196815

>  <SCORE.INTRA.POLAR.0>
-0.196815

>  <SCORE.INTRA.REPUL>
0

>  <SCORE.INTRA.REPUL.0>
0

>  <SCORE.INTRA.SOLV>
-0.400288

>  <SCORE.INTRA.SOLV.lig_0>
-14.7906

>  <SCORE.INTRA.VDW>
3.27422

>  <SCORE.INTRA.VDW.0>
-0.411701

>  <SCORE.INTRA.norm>
0.0595255

>  <SCORE.RESTR>
0

>  <SCORE.RESTR.CAVITY>
0

>  <SCORE.RESTR.norm>
0

>  <SCORE.SYSTEM>
0

>  <SCORE.SYSTEM.CONST>
0

>  <SCORE.SYSTEM.DIHEDRAL>
0

>  <SCORE.SYSTEM.SOLV>
0

>  <SCORE.SYSTEM.norm>
0

>  <SCORE.heavy>
30

>  <SCORE.norm>
-1.3752

>  <RMSD>
10.688

$$$$
1uts_lig
 OpenBabel11021811413D
libRbt.so/2013.1/901 2013/11/27
 30 33  0  0  0  0  0  0  0  0999 V2000
   -7.7763    0.7734   13.5087 N   0  0  0  0  0  0  0  0  0  0  0  0
   -6.4746    2.7675   14.1140 C   0  0  0  0  0  0  0  0  0  0  0  0
   -2.0410    4.0026   12.3971 C   0  0  0  0  0  0  0  0  0  0  0  0
   -5.0998    2.9382   14.7666 C   0  0  0  0  0  0  0  0  0  0  0  0
   -4.4113    4.0344   14.1469 O   0  0  0  0  0  0  0  0  0  0  0  0
   -7.1324    1.4880   14.6340 C   0  0  0  0  0  0  0  0  0  0  0  0
   -2.8505    5.0844   11.7918 N   0  0  0  0  0  0  0  0  0  0  0  0
   -2.2235    5.5262   10.5179 C   0  0  0  0  0  0  0  0  0  0  0  0
   -2.8987    6.8099   10.0264 C   0  0  0  0  0  0  0  0  0  0  0  0
   -4.2963    6.5142    9.6389 N   0  0  0  0  0  0  0  0  0  0  0  0
   -4.3214    6.0040    8.2379 C   0  0  0  0  0  0  0  0  0  0  0  0
   -5.1144    7.7544    9.7555 C   0  0  0  0  0  0  0  0  0  0  0  0
   -5.7720    5.6993    7.8305 C   0  0  0  0  0  0  0  0  0  0  0  0
   -6.5665    7.4514    9.3442 C   0  0  0  0  0  0  0  0  0  0  0  0
   -6.5905    6.9396    7.9457 N   0  0  0  0  0  0  0  0  0  0  0  0
   -1.7145    4.5485   16.7342 C   0  0  0  0  0  0  0  0  0  0  0  0
    4.6015    5.0837   18.1165 N   0  0  0  0  0  0  0  0  0  0  0  0
   -0.5496    4.5213   15.9307 C   0  0  0  0  0  0  0  0  0  0  0  0
   -0.6625    4.3436   14.5260 C   0  0  0  0  0  0  0  0  0  0  0  0
   -1.9421    4.1960   13.9238 C   0  0  0  0  0  0  0  0  0  0  0  0
   -3.1145    4.2074   14.7378 C   0  0  0  0  0  0  0  0  0  0  0  0
   -2.9955    4.3888   16.1430 C   0  0  0  0  0  0  0  0  0  0  0  0
    5.3238    4.7119   16.9600 C   0  0  0  0  0  0  0  0  0  0  0  0
    4.4475    4.3797   15.9020 C   0  0  0  0  0  0  0  0  0  0  0  0
    1.8880    4.3898   15.7877 C   0  0  0  0  0  0  0  0  0  0  0  0
    0.7087    4.6659   16.5318 C   0  0  0  0  0  0  0  0  0  0  0  0
    0.8079    5.0956   17.8837 C   0  0  0  0  0  0  0  0  0  0  0  0
    2.0843    5.2507   18.4890 C   0  0  0  0  0  0  0  0  0  0  0  0
    3.2692    4.9855   17.7336 C   0  0  0  0  0  0  0  0  0  0  0  0
    3.1731    4.5598   16.3961 C   0  0  0  0  0  0  0  0  0  0  0  0
  1  6  1  0  0  0  0
  2  4  1  0  0  0  0
  3  7  1  0  0  0  0
  4  5  1  0  0  0  0
  6  2  1  0  0  0  0
  7  8  1  0  0  0  0
  8  9  1  0  0  0  0
  9 10  1  0  0  0  0
 10 11  1  0  0  0  0
 10 12  1  0  0  0  0
 11 13  1  0  0  0  0
 13 15  1  0  0  0  0
 14 12  1  0  0  0  0
 15 14  1  0  0  0  0
 16 18  2  0  0  0  0
 16 22  1  0  0  0  0
 17 23  1  0  0  0  0
 17 29  1  0  0  0  0
 18 19  1  0  0  0  0
 18 26  1  0  0  0  0
 19 20  2  0  0  0  0
 20  3  1  0  0  0  0
 20 21  1  0  0  0  0
 21  5  1  0  0  0  0
 21 22  2  0  0  0  0
 23 24  2  0  0  0  0
 24 30  1  0  0  0  0
 25 26  2  0  0  0  0
 25 30  1  0  0  0  0
 26 27  1  0  0  0  0
 27 28  2  0  0  0  0
 28 29  1  0  0  0  0
 29 30  2  0  0  0  0
M  END
>  <CHROM.1>
171.51010792,172.26443403,139.04500432,-179.61750636,-137.66442295,-169.35413800
-67.07193370,-84.34333455,168.06549606,-120.82598090,124.51674056,-2.14299159
4.76469098,13.66293538,2.53132903,-0.34561185,-1.02469133

>  <Name>
1uts_lig

>  <RI>
0

>  <Rbt.Current_Directory>
/home/itssahil/PROJECTS/Mol_Feturizer/New_Systems/rnas/1uts

>  <Rbt.Executable>
rbdock ($Id: //depot/dev/client3/rdock/2013.1/src/exe/rbdock.cxx#4 $)

>  <Rbt.Library>
libRbt.so (2013.1, Build901 2013/11/27)

>  <Rbt.Parameter_File>
/export/apps/rDock/src/rDock_2013.1_src/data/scripts/dock_solv.prm

>  <Rbt.Receptor>
prm/pocket_docking_6.prm

>  <SCORE>
-35.4671

>  <SCORE.INTER>
-35.2055

>  <SCORE.INTER.CONST>
1

>  <SCORE.INTER.POLAR>
-1.74962

>  <SCORE.INTER.ROT>
10

>  <SCORE.INTER.SOLV>
8.77242

>  <SCORE.INTER.VDW>
-30.8291

>  <SCORE.INTER.norm>
-1.17352

>  <SCORE.INTRA>
-0.261585

>  <SCORE.INTRA.DIHEDRAL>
-4.47039

>  <SCORE.INTRA.DIHEDRAL.0>
18.0451

>  <SCORE.INTRA.POLAR>
0.196815

>  <SCORE.INTRA.POLAR.0>
-0.196815

>  <SCORE.INTRA.REPUL>
0

>  <SCORE.INTRA.REPUL.0>
0

>  <SCORE.INTRA.SOLV>
-0.215169

>  <SCORE.INTRA.SOLV.lig_0>
-14.7906

>  <SCORE.INTRA.VDW>
1.41202

>  <SCORE.INTRA.VDW.0>
-0.411701

>  <SCORE.INTRA.norm>
-0.00871951

>  <SCORE.RESTR>
0

>  <SCORE.RESTR.CAVITY>
0

>  <SCORE.RESTR.norm>
0

>  <SCORE.SYSTEM>
0

>  <SCORE.SYSTEM.CONST>
0

>  <SCORE.SYSTEM.DIHEDRAL>
0

>  <SCORE.SYSTEM.SOLV>
0

>  <SCORE.SYSTEM.norm>
0

>  <SCORE.heavy>
30

>  <SCORE.norm>
-1.18224

>  <RMSD>
10.751

$$$$
1uts_lig
 OpenBabel11021811413D
libRbt.so/2013.1/901 2013/11/27
 30 33  0  0  0  0  0  0  0  0999 V2000
    5.8839    5.7190   14.0062 N   0  0  0  0  0  0  0  0  0  0  0  0
    4.7275    4.4872   15.7902 C   0  0  0  0  0  0  0  0  0  0  0  0
    5.7294    1.7377   16.9312 C   0  0  0  0  0  0  0  0  0  0  0  0
    4.6240    5.0608   17.2064 C   0  0  0  0  0  0  0  0  0  0  0  0
    4.2803    4.0101   18.1217 O   0  0  0  0  0  0  0  0  0  0  0  0
    4.6193    5.6217   14.7697 C   0  0  0  0  0  0  0  0  0  0  0  0
    5.1722    0.3959   17.2162 N   0  0  0  0  0  0  0  0  0  0  0  0
    3.7056    0.4994   17.4381 C   0  0  0  0  0  0  0  0  0  0  0  0
    2.9664   -0.3983   16.4415 C   0  0  0  0  0  0  0  0  0  0  0  0
    1.5211   -0.0805   16.4702 N   0  0  0  0  0  0  0  0  0  0  0  0
    0.7764   -1.1026   15.6799 C   0  0  0  0  0  0  0  0  0  0  0  0
    1.3025    1.2788   15.8995 C   0  0  0  0  0  0  0  0  0  0  0  0
   -0.7251   -0.7736   15.7042 C   0  0  0  0  0  0  0  0  0  0  0  0
   -0.2011    1.6078   15.9199 C   0  0  0  0  0  0  0  0  0  0  0  0
   -0.9444    0.5852   15.1325 N   0  0  0  0  0  0  0  0  0  0  0  0
    7.0545    3.6403   20.6512 C   0  0  0  0  0  0  0  0  0  0  0  0
   12.1658    0.5870   23.0341 N   0  0  0  0  0  0  0  0  0  0  0  0
    7.7686    2.5390   20.1216 C   0  0  0  0  0  0  0  0  0  0  0  0
    7.3336    1.9269   18.9160 C   0  0  0  0  0  0  0  0  0  0  0  0
    6.1847    2.4187   18.2376 C   0  0  0  0  0  0  0  0  0  0  0  0
    5.4566    3.5189   18.7821 C   0  0  0  0  0  0  0  0  0  0  0  0
    5.8986    4.1297   19.9876 C   0  0  0  0  0  0  0  0  0  0  0  0
   11.5756    0.6662   24.3159 C   0  0  0  0  0  0  0  0  0  0  0  0
   10.2643    1.1878   24.2371 C   0  0  0  0  0  0  0  0  0  0  0  0
    8.8821    1.9326   22.2125 C   0  0  0  0  0  0  0  0  0  0  0  0
    8.8996    2.0587   20.7968 C   0  0  0  0  0  0  0  0  0  0  0  0
   10.0630    1.6906   20.0666 C   0  0  0  0  0  0  0  0  0  0  0  0
   11.2054    1.1952   20.7514 C   0  0  0  0  0  0  0  0  0  0  0  0
   11.1799    1.0563   22.1744 C   0  0  0  0  0  0  0  0  0  0  0  0
   10.0300    1.4206   22.8986 C   0  0  0  0  0  0  0  0  0  0  0  0
  1  6  1  0  0  0  0
  2  4  1  0  0  0  0
  3  7  1  0  0  0  0
  4  5  1  0  0  0  0
  6  2  1  0  0  0  0
  7  8  1  0  0  0  0
  8  9  1  0  0  0  0
  9 10  1  0  0  0  0
 10 11  1  0  0  0  0
 10 12  1  0  0  0  0
 11 13  1  0  0  0  0
 13 15  1  0  0  0  0
 14 12  1  0  0  0  0
 15 14  1  0  0  0  0
 16 18  2  0  0  0  0
 16 22  1  0  0  0  0
 17 23  1  0  0  0  0
 17 29  1  0  0  0  0
 18 19  1  0  0  0  0
 18 26  1  0  0  0  0
 19 20  2  0  0  0  0
 20  3  1  0  0  0  0
 20 21  1  0  0  0  0
 21  5  1  0  0  0  0
 21 22  2  0  0  0  0
 23 24  2  0  0  0  0
 24 30  1  0  0  0  0
 25 26  2  0  0  0  0
 25 30  1  0  0  0  0
 26 27  1  0  0  0  0
 27 28  2  0  0  0  0
 28 29  1  0  0  0  0
 29 30  2  0  0  0  0
M  END
>  <CHROM.1>
61.04015442,160.97112378,91.08989180,98.22844050,116.66395388,122.31141519
-168.12783545,-170.44122876,42.36032160,70.56888391,-91.62152167,5.74643021
1.95820578,18.49898375,-2.82601113,0.56026200,2.56717534

>  <Name>
1uts_lig

>  <RI>
0

>  <Rbt.Current_Directory>
/home/itssahil/PROJECTS/Mol_Feturizer/New_Systems/rnas/1uts

>  <Rbt.Executable>
rbdock ($Id: //depot/dev/client3/rdock/2013.1/src/exe/rbdock.cxx#4 $)

>  <Rbt.Library>
libRbt.so (2013.1, Build901 2013/11/27)

>  <Rbt.Parameter_File>
/export/apps/rDock/src/rDock_2013.1_src/data/scripts/dock_solv.prm

>  <Rbt.Receptor>
prm/pocket_docking_8.prm

>  <SCORE>
-10.171

>  <SCORE.INTER>
-15.1664

>  <SCORE.INTER.CONST>
1

>  <SCORE.INTER.POLAR>
-1.94564

>  <SCORE.INTER.ROT>
10

>  <SCORE.INTER.SOLV>
4.64535

>  <SCORE.INTER.VDW>
-15.4406

>  <SCORE.INTER.norm>
-0.505546

>  <SCORE.INTRA>
4.99534

>  <SCORE.INTRA.DIHEDRAL>
7.6918

>  <SCORE.INTRA.DIHEDRAL.0>
18.0451

>  <SCORE.INTRA.POLAR>
0.196815

>  <SCORE.INTRA.POLAR.0>
-0.196815

>  <SCORE.INTRA.REPUL>
0

>  <SCORE.INTRA.REPUL.0>
0

>  <SCORE.INTRA.SOLV>
-0.554138

>  <SCORE.INTRA.SOLV.lig_0>
-14.7906

>  <SCORE.INTRA.VDW>
0.757338

>  <SCORE.INTRA.VDW.0>
-0.411701

>  <SCORE.INTRA.norm>
0.166511

>  <SCORE.RESTR>
0

>  <SCORE.RESTR.CAVITY>
0

>  <SCORE.RESTR.norm>
0

>  <SCORE.SYSTEM>
0

>  <SCORE.SYSTEM.CONST>
0

>  <SCORE.SYSTEM.DIHEDRAL>
0

>  <SCORE.SYSTEM.SOLV>
0

>  <SCORE.SYSTEM.norm>
0

>  <SCORE.heavy>
30

>  <SCORE.norm>
-0.339034

>  <RMSD>
10.777

$$$$
1uts_lig
 OpenBabel11021811413D
libRbt.so/2013.1/901 2013/11/27
 30 33  0  0  0  0  0  0  0  0999 V2000
   -1.2018    7.4702   10.5923 N   0  0  0  0  0  0  0  0  0  0  0  0
   -1.8625    5.1918   11.2325 C   0  0  0  0  0  0  0  0  0  0  0  0
   -5.9953    3.3804   13.3207 C   0  0  0  0  0  0  0  0  0  0  0  0
   -3.2936    4.6476   11.1988 C   0  0  0  0  0  0  0  0  0  0  0  0
   -3.3673    3.4528   11.9905 O   0  0  0  0  0  0  0  0  0  0  0  0
   -1.8860    6.6684   11.6317 C   0  0  0  0  0  0  0  0  0  0  0  0
   -7.1767    3.6519   14.1708 N   0  0  0  0  0  0  0  0  0  0  0  0
   -8.3975    3.1054   13.5212 C   0  0  0  0  0  0  0  0  0  0  0  0
   -9.6318    3.4632   14.3543 C   0  0  0  0  0  0  0  0  0  0  0  0
  -10.8306    2.8373   13.7526 N   0  0  0  0  0  0  0  0  0  0  0  0
  -12.0419    3.6108   14.1502 C   0  0  0  0  0  0  0  0  0  0  0  0
  -10.9382    1.4261   14.2194 C   0  0  0  0  0  0  0  0  0  0  0  0
  -13.2897    2.9613   13.5301 C   0  0  0  0  0  0  0  0  0  0  0  0
  -12.1894    0.7758   13.6021 C   0  0  0  0  0  0  0  0  0  0  0  0
  -13.3985    1.5503   13.9976 N   0  0  0  0  0  0  0  0  0  0  0  0
   -2.3365    4.4740   15.4727 C   0  0  0  0  0  0  0  0  0  0  0  0
   -3.5721    5.9526   21.5688 N   0  0  0  0  0  0  0  0  0  0  0  0
   -3.5824    4.4688   16.1443 C   0  0  0  0  0  0  0  0  0  0  0  0
   -4.7642    4.1139   15.4409 C   0  0  0  0  0  0  0  0  0  0  0  0
   -4.6995    3.7608   14.0650 C   0  0  0  0  0  0  0  0  0  0  0  0
   -3.4444    3.7825   13.3857 C   0  0  0  0  0  0  0  0  0  0  0  0
   -2.2642    4.1356   14.0957 C   0  0  0  0  0  0  0  0  0  0  0  0
   -2.1781    6.1504   21.6934 C   0  0  0  0  0  0  0  0  0  0  0  0
   -1.5173    5.8701   20.4759 C   0  0  0  0  0  0  0  0  0  0  0  0
   -2.4436    5.1308   18.2045 C   0  0  0  0  0  0  0  0  0  0  0  0
   -3.6386    4.8196   17.5005 C   0  0  0  0  0  0  0  0  0  0  0  0
   -4.8909    4.8714   18.1722 C   0  0  0  0  0  0  0  0  0  0  0  0
   -4.9474    5.2360   19.5446 C   0  0  0  0  0  0  0  0  0  0  0  0
   -3.7449    5.5621   20.2464 C   0  0  0  0  0  0  0  0  0  0  0  0
   -2.5049    5.5108   19.5837 C   0  0  0  0  0  0  0  0  0  0  0  0
  1  6  1  0  0  0  0
  2  4  1  0  0  0  0
  3  7  1  0  0  0  0
  4  5  1  0  0  0  0
  6  2  1  0  0  0  0
  7  8  1  0  0  0  0
  8  9  1  0  0  0  0
  9 10  1  0  0  0  0
 10 11  1  0  0  0  0
 10 12  1  0  0  0  0
 11 13  1  0  0  0  0
 13 15  1  0  0  0  0
 14 12  1  0  0  0  0
 15 14  1  0  0  0  0
 16 18  2  0  0  0  0
 16 22  1  0  0  0  0
 17 23  1  0  0  0  0
 17 29  1  0  0  0  0
 18 19  1  0  0  0  0
 18 26  1  0  0  0  0
 19 20  2  0  0  0  0
 20  3  1  0  0  0  0
 20 21  1  0  0  0  0
 21  5  1  0  0  0  0
 21 22  2  0  0  0  0
 23 24  2  0  0  0  0
 24 30  1  0  0  0  0
 25 26  2  0  0  0  0
 25 30  1  0  0  0  0
 26 27  1  0  0  0  0
 27 28  2  0  0  0  0
 28 29  1  0  0  0  0
 29 30  2  0  0  0  0
M  END
>  <CHROM.1>
68.93565336,-128.04027337,-172.05417573,79.04324795,-124.05939827,-176.40035526
-176.11944325,-155.65839828,-2.25466858,8.56185429,100.28832204,-5.65207014
4.24809922,15.21872472,-0.38807728,-0.31816316,-1.63722743

>  <Name>
1uts_lig

>  <RI>
0

>  <Rbt.Current_Directory>
/home/itssahil/PROJECTS/Mol_Feturizer/New_Systems/rnas/1uts

>  <Rbt.Executable>
rbdock ($Id: //depot/dev/client3/rdock/2013.1/src/exe/rbdock.cxx#4 $)

>  <Rbt.Library>
libRbt.so (2013.1, Build901 2013/11/27)

>  <Rbt.Parameter_File>
/export/apps/rDock/src/rDock_2013.1_src/data/scripts/dock_solv.prm

>  <Rbt.Receptor>
prm/pocket_docking_8.prm

>  <SCORE>
-50.7229

>  <SCORE.INTER>
-53.7672

>  <SCORE.INTER.CONST>
1

>  <SCORE.INTER.POLAR>
-4.2963

>  <SCORE.INTER.ROT>
10

>  <SCORE.INTER.SOLV>
12.6363

>  <SCORE.INTER.VDW>
-36.0026

>  <SCORE.INTER.norm>
-1.79224

>  <SCORE.INTRA>
3.0443

>  <SCORE.INTRA.DIHEDRAL>
1.36231

>  <SCORE.INTRA.DIHEDRAL.0>
18.0451

>  <SCORE.INTRA.POLAR>
0.196815

>  <SCORE.INTRA.POLAR.0>
-0.196815

>  <SCORE.INTRA.REPUL>
0

>  <SCORE.INTRA.REPUL.0>
0

>  <SCORE.INTRA.SOLV>
-0.62229

>  <SCORE.INTRA.SOLV.lig_0>
-14.7906

>  <SCORE.INTRA.VDW>
2.00512

>  <SCORE.INTRA.VDW.0>
-0.411701

>  <SCORE.INTRA.norm>
0.101477

>  <SCORE.RESTR>
0

>  <SCORE.RESTR.CAVITY>
0

>  <SCORE.RESTR.norm>
0

>  <SCORE.SYSTEM>
0

>  <SCORE.SYSTEM.CONST>
0

>  <SCORE.SYSTEM.DIHEDRAL>
0

>  <SCORE.SYSTEM.SOLV>
0

>  <SCORE.SYSTEM.norm>
0

>  <SCORE.heavy>
30

>  <SCORE.norm>
-1.69076

>  <RMSD>
11.031

$$$$
1uts_lig
 OpenBabel11021811413D
libRbt.so/2013.1/901 2013/11/27
 30 33  0  0  0  0  0  0  0  0999 V2000
   -2.3808    7.7380    9.3643 N   0  0  0  0  0  0  0  0  0  0  0  0
   -3.6537    5.6618    9.6910 C   0  0  0  0  0  0  0  0  0  0  0  0
   -5.6065    3.8008   14.2391 C   0  0  0  0  0  0  0  0  0  0  0  0
   -3.7518    4.3942   10.5446 C   0  0  0  0  0  0  0  0  0  0  0  0
   -4.1053    4.7516   11.8889 O   0  0  0  0  0  0  0  0  0  0  0  0
   -2.5942    6.5948   10.2803 C   0  0  0  0  0  0  0  0  0  0  0  0
   -6.5112    2.6800   13.8966 N   0  0  0  0  0  0  0  0  0  0  0  0
   -7.9044    3.0239   14.2862 C   0  0  0  0  0  0  0  0  0  0  0  0
   -8.8695    1.9640   13.7470 C   0  0  0  0  0  0  0  0  0  0  0  0
  -10.2293    2.2242   14.2704 N   0  0  0  0  0  0  0  0  0  0  0  0
  -11.1284    1.0979   13.8868 C   0  0  0  0  0  0  0  0  0  0  0  0
  -10.7369    3.5087   13.7106 C   0  0  0  0  0  0  0  0  0  0  0  0
  -12.5429    1.3666   14.4255 C   0  0  0  0  0  0  0  0  0  0  0  0
  -12.1548    3.7769   14.2464 C   0  0  0  0  0  0  0  0  0  0  0  0
  -13.0516    2.6505   13.8650 N   0  0  0  0  0  0  0  0  0  0  0  0
   -1.4333    2.6587   13.5356 C   0  0  0  0  0  0  0  0  0  0  0  0
    0.7931   -1.0274   18.2639 N   0  0  0  0  0  0  0  0  0  0  0  0
   -2.1137    2.1948   14.6868 C   0  0  0  0  0  0  0  0  0  0  0  0
   -3.4657    2.5690   14.9089 C   0  0  0  0  0  0  0  0  0  0  0  0
   -4.1391    3.4057   13.9771 C   0  0  0  0  0  0  0  0  0  0  0  0
   -3.4462    3.8857   12.8253 C   0  0  0  0  0  0  0  0  0  0  0  0
   -2.0937    3.5053   12.6065 C   0  0  0  0  0  0  0  0  0  0  0  0
    2.0559   -0.8787   17.6467 C   0  0  0  0  0  0  0  0  0  0  0  0
    1.9625   -0.0654   16.4945 C   0  0  0  0  0  0  0  0  0  0  0  0
   -0.0498    1.1303   15.4529 C   0  0  0  0  0  0  0  0  0  0  0  0
   -1.4428    1.3713   15.6018 C   0  0  0  0  0  0  0  0  0  0  0  0
   -2.1525    0.7817   16.6839 C   0  0  0  0  0  0  0  0  0  0  0  0
   -1.4694   -0.0454   17.6161 C   0  0  0  0  0  0  0  0  0  0  0  0
   -0.0652   -0.2747   17.4715 C   0  0  0  0  0  0  0  0  0  0  0  0
    0.6385    0.3073   16.4013 C   0  0  0  0  0  0  0  0  0  0  0  0
  1  6  1  0  0  0  0
  2  4  1  0  0  0  0
  3  7  1  0  0  0  0
  4  5  1  0  0  0  0
  6  2  1  0  0  0  0
  7  8  1  0  0  0  0
  8  9  1  0  0  0  0
  9 10  1  0  0  0  0
 10 11  1  0  0  0  0
 10 12  1  0  0  0  0
 11 13  1  0  0  0  0
 13 15  1  0  0  0  0
 14 12  1  0  0  0  0
 15 14  1  0  0  0  0
 16 18  2  0  0  0  0
 16 22  1  0  0  0  0
 17 23  1  0  0  0  0
 17 29  1  0  0  0  0
 18 19  1  0  0  0  0
 18 26  1  0  0  0  0
 19 20  2  0  0  0  0
 20  3  1  0  0  0  0
 20 21  1  0  0  0  0
 21  5  1  0  0  0  0
 21 22  2  0  0  0  0
 23 24  2  0  0  0  0
 24 30  1  0  0  0  0
 25 26  2  0  0  0  0
 25 30  1  0  0  0  0
 26 27  1  0  0  0  0
 27 28  2  0  0  0  0
 28 29  1  0  0  0  0
 29 30  2  0  0  0  0
M  END
>  <CHROM.1>
50.66782739,59.36774772,174.15972453,-144.27643761,172.99861141,171.56872810
173.39688288,-172.87996399,7.11324839,-77.62951955,-139.59169485,-4.57454549
2.57715040,14.12207197,-0.29854235,-0.01207801,-0.82292484

>  <Name>
1uts_lig

>  <RI>
0

>  <Rbt.Current_Directory>
/home/itssahil/PROJECTS/Mol_Feturizer/New_Systems/rnas/1uts

>  <Rbt.Executable>
rbdock ($Id: //depot/dev/client3/rdock/2013.1/src/exe/rbdock.cxx#4 $)

>  <Rbt.Library>
libRbt.so (2013.1, Build901 2013/11/27)

>  <Rbt.Parameter_File>
/export/apps/rDock/src/rDock_2013.1_src/data/scripts/dock_solv.prm

>  <Rbt.Receptor>
prm/pocket_docking_8.prm

>  <SCORE>
-31.6525

>  <SCORE.INTER>
-30.6529

>  <SCORE.INTER.CONST>
1

>  <SCORE.INTER.POLAR>
-1.5468

>  <SCORE.INTER.ROT>
10

>  <SCORE.INTER.SOLV>
9.06079

>  <SCORE.INTER.VDW>
-28.5662

>  <SCORE.INTER.norm>
-1.02176

>  <SCORE.INTRA>
-0.999559

>  <SCORE.INTRA.DIHEDRAL>
-9.65828

>  <SCORE.INTRA.DIHEDRAL.0>
18.0451

>  <SCORE.INTRA.POLAR>
0.196815

>  <SCORE.INTRA.POLAR.0>
-0.196815

>  <SCORE.INTRA.REPUL>
0

>  <SCORE.INTRA.REPUL.0>
0

>  <SCORE.INTRA.SOLV>
-0.569256

>  <SCORE.INTRA.SOLV.lig_0>
-14.7906

>  <SCORE.INTRA.VDW>
3.44504

>  <SCORE.INTRA.VDW.0>
-0.411701

>  <SCORE.INTRA.norm>
-0.0333186

>  <SCORE.RESTR>
0

>  <SCORE.RESTR.CAVITY>
0

>  <SCORE.RESTR.norm>
0

>  <SCORE.SYSTEM>
0

>  <SCORE.SYSTEM.CONST>
0

>  <SCORE.SYSTEM.DIHEDRAL>
0

>  <SCORE.SYSTEM.SOLV>
0

>  <SCORE.SYSTEM.norm>
0

>  <SCORE.heavy>
30

>  <SCORE.norm>
-1.05508

>  <RMSD>
11.066

$$$$
1uts_lig
 OpenBabel11021811413D
libRbt.so/2013.1/901 2013/11/27
 30 33  0  0  0  0  0  0  0  0999 V2000
   -3.4531   -2.7942   13.7414 N   0  0  0  0  0  0  0  0  0  0  0  0
   -4.1339   -2.7408   16.1017 C   0  0  0  0  0  0  0  0  0  0  0  0
    0.6168   -1.2375   15.9714 C   0  0  0  0  0  0  0  0  0  0  0  0
   -2.8786   -3.3884   16.6934 C   0  0  0  0  0  0  0  0  0  0  0  0
   -1.9085   -2.3707   16.9814 O   0  0  0  0  0  0  0  0  0  0  0  0
   -3.7496   -1.8997   14.8831 C   0  0  0  0  0  0  0  0  0  0  0  0
   -0.2658   -0.1569   16.4667 N   0  0  0  0  0  0  0  0  0  0  0  0
   -0.0264    1.0840   15.6833 C   0  0  0  0  0  0  0  0  0  0  0  0
   -1.0669    2.1428   16.0596 C   0  0  0  0  0  0  0  0  0  0  0  0
   -1.9363    2.4157   14.8931 N   0  0  0  0  0  0  0  0  0  0  0  0
   -1.1936    3.2580   13.9119 C   0  0  0  0  0  0  0  0  0  0  0  0
   -3.1706    3.1149   15.3495 C   0  0  0  0  0  0  0  0  0  0  0  0
   -2.0949    3.5467   12.7005 C   0  0  0  0  0  0  0  0  0  0  0  0
   -4.0722    3.4078   14.1367 C   0  0  0  0  0  0  0  0  0  0  0  0
   -3.3290    4.2471   13.1562 N   0  0  0  0  0  0  0  0  0  0  0  0
    0.5410   -4.6797   18.6845 C   0  0  0  0  0  0  0  0  0  0  0  0
    6.4539   -6.7335   19.9956 N   0  0  0  0  0  0  0  0  0  0  0  0
    1.7750   -4.1766   18.2076 C   0  0  0  0  0  0  0  0  0  0  0  0
    1.7924   -3.0612   17.3283 C   0  0  0  0  0  0  0  0  0  0  0  0
    0.5743   -2.4463   16.9280 C   0  0  0  0  0  0  0  0  0  0  0  0
   -0.6697   -2.9654   17.3971 C   0  0  0  0  0  0  0  0  0  0  0  0
   -0.6808   -4.0803   18.2796 C   0  0  0  0  0  0  0  0  0  0  0  0
    5.9665   -7.1233   21.2638 C   0  0  0  0  0  0  0  0  0  0  0  0
    4.6368   -6.6826   21.4513 C   0  0  0  0  0  0  0  0  0  0  0  0
    3.0724   -5.3835   19.8927 C   0  0  0  0  0  0  0  0  0  0  0  0
    2.9717   -4.7889   18.6055 C   0  0  0  0  0  0  0  0  0  0  0  0
    4.0841   -4.8226   17.7202 C   0  0  0  0  0  0  0  0  0  0  0  0
    5.2936   -5.4517   18.1212 C   0  0  0  0  0  0  0  0  0  0  0  0
    5.3872   -6.0611   19.4115 C   0  0  0  0  0  0  0  0  0  0  0  0
    4.2879   -6.0283   20.2890 C   0  0  0  0  0  0  0  0  0  0  0  0
  1  6  1  0  0  0  0
  2  4  1  0  0  0  0
  3  7  1  0  0  0  0
  4  5  1  0  0  0  0
  6  2  1  0  0  0  0
  7  8  1  0  0  0  0
  8  9  1  0  0  0  0
  9 10  1  0  0  0  0
 10 11  1  0  0  0  0
 10 12  1  0  0  0  0
 11 13  1  0  0  0  0
 13 15  1  0  0  0  0
 14 12  1  0  0  0  0
 15 14  1  0  0  0  0
 16 18  2  0  0  0  0
 16 22  1  0  0  0  0
 17 23  1  0  0  0  0
 17 29  1  0  0  0  0
 18 19  1  0  0  0  0
 18 26  1  0  0  0  0
 19 20  2  0  0  0  0
 20  3  1  0  0  0  0
 20 21  1  0  0  0  0
 21  5  1  0  0  0  0
 21 22  2  0  0  0  0
 23 24  2  0  0  0  0
 24 30  1  0  0  0  0
 25 26  2  0  0  0  0
 25 30  1  0  0  0  0
 26 27  1  0  0  0  0
 27 28  2  0  0  0  0
 28 29  1  0  0  0  0
 29 30  2  0  0  0  0
M  END
>  <CHROM.1>
86.96407074,54.93585352,169.60714115,-173.59738285,74.80927714,172.22468598
-114.07255236,-75.73236244,-31.99717019,-133.39976820,138.44768630,0.26467637
-2.03765061,16.88045185,2.24303827,-0.28304829,-0.36895719

>  <Name>
1uts_lig

>  <RI>
0

>  <Rbt.Current_Directory>
/home/itssahil/PROJECTS/Mol_Feturizer/New_Systems/rnas/1uts

>  <Rbt.Executable>
rbdock ($Id: //depot/dev/client3/rdock/2013.1/src/exe/rbdock.cxx#4 $)

>  <Rbt.Library>
libRbt.so (2013.1, Build901 2013/11/27)

>  <Rbt.Parameter_File>
/export/apps/rDock/src/rDock_2013.1_src/data/scripts/dock_solv.prm

>  <Rbt.Receptor>
prm/pocket_docking_7.prm

>  <SCORE>
-28.245

>  <SCORE.INTER>
-27.1136

>  <SCORE.INTER.CONST>
1

>  <SCORE.INTER.POLAR>
-2.41422

>  <SCORE.INTER.ROT>
10

>  <SCORE.INTER.SOLV>
6.81532

>  <SCORE.INTER.VDW>
-22.5667

>  <SCORE.INTER.norm>
-0.903785

>  <SCORE.INTRA>
-1.28812

>  <SCORE.INTRA.DIHEDRAL>
-4.84609

>  <SCORE.INTRA.DIHEDRAL.0>
18.0451

>  <SCORE.INTRA.POLAR>
-0.226303

>  <SCORE.INTRA.POLAR.0>
-0.196815

>  <SCORE.INTRA.REPUL>
0

>  <SCORE.INTRA.REPUL.0>
0

>  <SCORE.INTRA.SOLV>
-0.00781362

>  <SCORE.INTRA.SOLV.lig_0>
-14.7906

>  <SCORE.INTRA.VDW>
1.90827

>  <SCORE.INTRA.VDW.0>
-0.411701

>  <SCORE.INTRA.norm>
-0.0429372

>  <SCORE.RESTR>
0.156655

>  <SCORE.RESTR.CAVITY>
0.156655

>  <SCORE.RESTR.norm>
0.00522182

>  <SCORE.SYSTEM>
0

>  <SCORE.SYSTEM.CONST>
0

>  <SCORE.SYSTEM.DIHEDRAL>
0

>  <SCORE.SYSTEM.SOLV>
0

>  <SCORE.SYSTEM.norm>
0

>  <SCORE.heavy>
30

>  <SCORE.norm>
-0.9415

>  <RMSD>
11.143

$$$$
1uts_lig
 OpenBabel11021811413D
libRbt.so/2013.1/901 2013/11/27
 30 33  0  0  0  0  0  0  0  0999 V2000
   -8.4258    6.4598    7.4704 N   0  0  0  0  0  0  0  0  0  0  0  0
   -7.1212    5.0735    9.0239 C   0  0  0  0  0  0  0  0  0  0  0  0
   -6.8182    3.4166   13.5812 C   0  0  0  0  0  0  0  0  0  0  0  0
   -5.9490    5.0829   10.0094 C   0  0  0  0  0  0  0  0  0  0  0  0
   -5.9785    3.8827   10.7957 O   0  0  0  0  0  0  0  0  0  0  0  0
   -7.2448    6.4476    8.3629 C   0  0  0  0  0  0  0  0  0  0  0  0
   -7.0388    1.9538   13.6412 N   0  0  0  0  0  0  0  0  0  0  0  0
   -8.4160    1.6745   14.1272 C   0  0  0  0  0  0  0  0  0  0  0  0
   -8.6978    0.1712   14.0489 C   0  0  0  0  0  0  0  0  0  0  0  0
   -9.4007   -0.1329   12.7822 N   0  0  0  0  0  0  0  0  0  0  0  0
  -10.6953   -0.8074   13.0872 C   0  0  0  0  0  0  0  0  0  0  0  0
   -8.5420   -1.0122   11.9394 C   0  0  0  0  0  0  0  0  0  0  0  0
  -11.4265   -1.1284   11.7736 C   0  0  0  0  0  0  0  0  0  0  0  0
   -9.2748   -1.3373   10.6253 C   0  0  0  0  0  0  0  0  0  0  0  0
  -10.5687   -2.0088   10.9307 N   0  0  0  0  0  0  0  0  0  0  0  0
   -2.6540    4.2942   12.5306 C   0  0  0  0  0  0  0  0  0  0  0  0
    1.0759    4.4361   17.7222 N   0  0  0  0  0  0  0  0  0  0  0  0
   -3.0196    4.0942   13.8832 C   0  0  0  0  0  0  0  0  0  0  0  0
   -4.3708    3.8106   14.2168 C   0  0  0  0  0  0  0  0  0  0  0  0
   -5.3570    3.7239   13.1960 C   0  0  0  0  0  0  0  0  0  0  0  0
   -4.9891    3.9421   11.8343 C   0  0  0  0  0  0  0  0  0  0  0  0
   -3.6344    4.2226   11.5061 C   0  0  0  0  0  0  0  0  0  0  0  0
    2.1459    4.0845   16.8683 C   0  0  0  0  0  0  0  0  0  0  0  0
    1.6812    3.8137   15.5612 C   0  0  0  0  0  0  0  0  0  0  0  0
   -0.6832    3.8995   14.5781 C   0  0  0  0  0  0  0  0  0  0  0  0
   -2.0420    4.1827   14.8843 C   0  0  0  0  0  0  0  0  0  0  0  0
   -2.4067    4.5623   16.2053 C   0  0  0  0  0  0  0  0  0  0  0  0
   -1.4135    4.6606   17.2169 C   0  0  0  0  0  0  0  0  0  0  0  0
   -0.0453    4.3886   16.9024 C   0  0  0  0  0  0  0  0  0  0  0  0
    0.3174    4.0123   15.5962 C   0  0  0  0  0  0  0  0  0  0  0  0
  1  6  1  0  0  0  0
  2  4  1  0  0  0  0
  3  7  1  0  0  0  0
  4  5  1  0  0  0  0
  6  2  1  0  0  0  0
  7  8  1  0  0  0  0
  8  9  1  0  0  0  0
  9 10  1  0  0  0  0
 10 11  1  0  0  0  0
 10 12  1  0  0  0  0
 11 13  1  0  0  0  0
 13 15  1  0  0  0  0
 14 12  1  0  0  0  0
 15 14  1  0  0  0  0
 16 18  2  0  0  0  0
 16 22  1  0  0  0  0
 17 23  1  0  0  0  0
 17 29  1  0  0  0  0
 18 19  1  0  0  0  0
 18 26  1  0  0  0  0
 19 20  2  0  0  0  0
 20  3  1  0  0  0  0
 20 21  1  0  0  0  0
 21  5  1  0  0  0  0
 21 22  2  0  0  0  0
 23 24  2  0  0  0  0
 24 30  1  0  0  0  0
 25 26  2  0  0  0  0
 25 30  1  0  0  0  0
 26 27  1  0  0  0  0
 27 28  2  0  0  0  0
 28 29  1  0  0  0  0
 29 30  2  0  0  0  0
M  END
>  <CHROM.1>
170.15286638,169.90617441,175.12732525,-173.00670455,-176.72785648,174.01480640
-95.57514178,-122.89247339,-26.94431603,-87.46570122,126.40346736,-5.24056902
2.93548426,13.04130076,-3.06801486,0.56375219,2.35544814

>  <Name>
1uts_lig

>  <RI>
0

>  <Rbt.Current_Directory>
/home/itssahil/PROJECTS/Mol_Feturizer/New_Systems/rnas/1uts

>  <Rbt.Executable>
rbdock ($Id: //depot/dev/client3/rdock/2013.1/src/exe/rbdock.cxx#4 $)

>  <Rbt.Library>
libRbt.so (2013.1, Build901 2013/11/27)

>  <Rbt.Parameter_File>
/export/apps/rDock/src/rDock_2013.1_src/data/scripts/dock_solv.prm

>  <Rbt.Receptor>
prm/pocket_docking_8.prm

>  <SCORE>
-41.1271

>  <SCORE.INTER>
-39.9213

>  <SCORE.INTER.CONST>
1

>  <SCORE.INTER.POLAR>
-2.59513

>  <SCORE.INTER.ROT>
10

>  <SCORE.INTER.SOLV>
12.1231

>  <SCORE.INTER.VDW>
-32.2714

>  <SCORE.INTER.norm>
-1.33071

>  <SCORE.INTRA>
-1.20588

>  <SCORE.INTRA.DIHEDRAL>
-5.08634

>  <SCORE.INTRA.DIHEDRAL.0>
18.0451

>  <SCORE.INTRA.POLAR>
0.196815

>  <SCORE.INTRA.POLAR.0>
-0.196815

>  <SCORE.INTRA.REPUL>
0

>  <SCORE.INTRA.REPUL.0>
0

>  <SCORE.INTRA.SOLV>
-0.490374

>  <SCORE.INTRA.SOLV.lig_0>
-14.7906

>  <SCORE.INTRA.VDW>
0.913301

>  <SCORE.INTRA.VDW.0>
-0.411701

>  <SCORE.INTRA.norm>
-0.0401962

>  <SCORE.RESTR>
0

>  <SCORE.RESTR.CAVITY>
0

>  <SCORE.RESTR.norm>
0

>  <SCORE.SYSTEM>
0

>  <SCORE.SYSTEM.CONST>
0

>  <SCORE.SYSTEM.DIHEDRAL>
0

>  <SCORE.SYSTEM.SOLV>
0

>  <SCORE.SYSTEM.norm>
0

>  <SCORE.heavy>
30

>  <SCORE.norm>
-1.3709

>  <RMSD>
11.297

$$$$
1uts_lig
 OpenBabel11021811413D
libRbt.so/2013.1/901 2013/11/27
 30 33  0  0  0  0  0  0  0  0999 V2000
    1.0954    2.6617    8.0070 N   0  0  0  0  0  0  0  0  0  0  0  0
   -0.7108    3.5598    6.6042 C   0  0  0  0  0  0  0  0  0  0  0  0
   -2.0386    7.2537   10.0009 C   0  0  0  0  0  0  0  0  0  0  0  0
   -1.5113    3.7029    7.9019 C   0  0  0  0  0  0  0  0  0  0  0  0
   -1.0377    4.8455    8.6299 O   0  0  0  0  0  0  0  0  0  0  0  0
    0.7855    3.6146    6.9174 C   0  0  0  0  0  0  0  0  0  0  0  0
   -3.4476    7.4926    9.6137 N   0  0  0  0  0  0  0  0  0  0  0  0
   -3.4973    8.4146    8.4482 C   0  0  0  0  0  0  0  0  0  0  0  0
   -4.7976    8.1952    7.6694 C   0  0  0  0  0  0  0  0  0  0  0  0
   -5.9455    8.6366    8.4931 N   0  0  0  0  0  0  0  0  0  0  0  0
   -6.3464    7.5320    9.4112 C   0  0  0  0  0  0  0  0  0  0  0  0
   -7.0797    9.0088    7.6009 C   0  0  0  0  0  0  0  0  0  0  0  0
   -7.5411    7.9856   10.2657 C   0  0  0  0  0  0  0  0  0  0  0  0
   -8.2779    9.4596    8.4556 C   0  0  0  0  0  0  0  0  0  0  0  0
   -8.6762    8.3568    9.3740 N   0  0  0  0  0  0  0  0  0  0  0  0
   -1.6553    3.4034   12.0606 C   0  0  0  0  0  0  0  0  0  0  0  0
   -3.2702    4.2247   18.2569 N   0  0  0  0  0  0  0  0  0  0  0  0
   -2.1236    4.5411   12.7603 C   0  0  0  0  0  0  0  0  0  0  0  0
   -2.2450    5.7858   12.0870 C   0  0  0  0  0  0  0  0  0  0  0  0
   -1.9006    5.8921   10.7115 C   0  0  0  0  0  0  0  0  0  0  0  0
   -1.4131    4.7474   10.0121 C   0  0  0  0  0  0  0  0  0  0  0  0
   -1.2966    3.5032   10.6905 C   0  0  0  0  0  0  0  0  0  0  0  0
   -2.0271    4.7095   18.7231 C   0  0  0  0  0  0  0  0  0  0  0  0
   -1.1582    4.9915   17.6446 C   0  0  0  0  0  0  0  0  0  0  0  0
   -1.5150    4.7896   15.1156 C   0  0  0  0  0  0  0  0  0  0  0  0
   -2.4598    4.4290   14.1167 C   0  0  0  0  0  0  0  0  0  0  0  0
   -3.7482    3.9613   14.4956 C   0  0  0  0  0  0  0  0  0  0  0  0
   -4.0911    3.8569   15.8708 C   0  0  0  0  0  0  0  0  0  0  0  0
   -3.1432    4.2336   16.8731 C   0  0  0  0  0  0  0  0  0  0  0  0
   -1.8678    4.6960   16.5002 C   0  0  0  0  0  0  0  0  0  0  0  0
  1  6  1  0  0  0  0
  2  4  1  0  0  0  0
  3  7  1  0  0  0  0
  4  5  1  0  0  0  0
  6  2  1  0  0  0  0
  7  8  1  0  0  0  0
  8  9  1  0  0  0  0
  9 10  1  0  0  0  0
 10 11  1  0  0  0  0
 10 12  1  0  0  0  0
 11 13  1  0  0  0  0
 13 15  1  0  0  0  0
 14 12  1  0  0  0  0
 15 14  1  0  0  0  0
 16 18  2  0  0  0  0
 16 22  1  0  0  0  0
 17 23  1  0  0  0  0
 17 29  1  0  0  0  0
 18 19  1  0  0  0  0
 18 26  1  0  0  0  0
 19 20  2  0  0  0  0
 20  3  1  0  0  0  0
 20 21  1  0  0  0  0
 21  5  1  0  0  0  0
 21 22  2  0  0  0  0
 23 24  2  0  0  0  0
 24 30  1  0  0  0  0
 25 26  2  0  0  0  0
 25 30  1  0  0  0  0
 26 27  1  0  0  0  0
 27 28  2  0  0  0  0
 28 29  1  0  0  0  0
 29 30  2  0  0  0  0
M  END
>  <CHROM.1>
-69.92620141,50.44661146,-154.15855336,-159.92910026,50.50880679,155.13330633
67.62260051,-84.28967684,96.45011545,-80.41498969,-137.73033828,-3.14429925
5.66408561,11.27954340,-1.96357362,-0.60797522,1.72083887

>  <Name>
1uts_lig

>  <RI>
0

>  <Rbt.Current_Directory>
/home/itssahil/PROJECTS/Mol_Feturizer/New_Systems/rnas/1uts

>  <Rbt.Executable>
rbdock ($Id: //depot/dev/client3/rdock/2013.1/src/exe/rbdock.cxx#4 $)

>  <Rbt.Library>
libRbt.so (2013.1, Build901 2013/11/27)

>  <Rbt.Parameter_File>
/export/apps/rDock/src/rDock_2013.1_src/data/scripts/dock_solv.prm

>  <Rbt.Receptor>
prm/pocket_docking_8.prm

>  <SCORE>
-42.1732

>  <SCORE.INTER>
-42.8049

>  <SCORE.INTER.CONST>
1

>  <SCORE.INTER.POLAR>
-2.77704

>  <SCORE.INTER.ROT>
10

>  <SCORE.INTER.SOLV>
12.3023

>  <SCORE.INTER.VDW>
-33.6472

>  <SCORE.INTER.norm>
-1.42683

>  <SCORE.INTRA>
0.630045

>  <SCORE.INTRA.DIHEDRAL>
-3.45489

>  <SCORE.INTRA.DIHEDRAL.0>
18.0451

>  <SCORE.INTRA.POLAR>
0.196815

>  <SCORE.INTRA.POLAR.0>
-0.196815

>  <SCORE.INTRA.REPUL>
0

>  <SCORE.INTRA.REPUL.0>
0

>  <SCORE.INTRA.SOLV>
0.269647

>  <SCORE.INTRA.SOLV.lig_0>
-14.7906

>  <SCORE.INTRA.VDW>
1.55349

>  <SCORE.INTRA.VDW.0>
-0.411701

>  <SCORE.INTRA.norm>
0.0210015

>  <SCORE.RESTR>
0.00164508

>  <SCORE.RESTR.CAVITY>
0.00164508

>  <SCORE.RESTR.norm>
5.48361e-05

>  <SCORE.SYSTEM>
0

>  <SCORE.SYSTEM.CONST>
0

>  <SCORE.SYSTEM.DIHEDRAL>
0

>  <SCORE.SYSTEM.SOLV>
0

>  <SCORE.SYSTEM.norm>
0

>  <SCORE.heavy>
30

>  <SCORE.norm>
-1.40577

>  <RMSD>
11.478

$$$$
1uts_lig
 OpenBabel11021811413D
libRbt.so/2013.1/901 2013/11/27
 30 33  0  0  0  0  0  0  0  0999 V2000
    0.7066    2.0037    6.2213 N   0  0  0  0  0  0  0  0  0  0  0  0
   -0.2020    4.2207    6.7660 C   0  0  0  0  0  0  0  0  0  0  0  0
   -2.4020    7.0539   10.1239 C   0  0  0  0  0  0  0  0  0  0  0  0
   -0.3850    3.9853    8.2681 C   0  0  0  0  0  0  0  0  0  0  0  0
   -1.6079    4.5993    8.7008 O   0  0  0  0  0  0  0  0  0  0  0  0
    1.0232    3.4489    6.2727 C   0  0  0  0  0  0  0  0  0  0  0  0
   -3.8428    7.3738   10.2418 N   0  0  0  0  0  0  0  0  0  0  0  0
   -4.2617    8.2268    9.0983 C   0  0  0  0  0  0  0  0  0  0  0  0
   -5.7765    8.4476    9.1445 C   0  0  0  0  0  0  0  0  0  0  0  0
   -6.4346    7.5542    8.1649 N   0  0  0  0  0  0  0  0  0  0  0  0
   -7.8420    8.0018    7.9582 C   0  0  0  0  0  0  0  0  0  0  0  0
   -6.4037    6.1540    8.6743 C   0  0  0  0  0  0  0  0  0  0  0  0
   -8.5301    7.0738    6.9441 C   0  0  0  0  0  0  0  0  0  0  0  0
   -7.0957    5.2243    7.6613 C   0  0  0  0  0  0  0  0  0  0  0  0
   -8.5005    5.6735    7.4536 N   0  0  0  0  0  0  0  0  0  0  0  0
   -1.4961    3.3301   12.2516 C   0  0  0  0  0  0  0  0  0  0  0  0
   -1.8749    4.4046   18.5970 N   0  0  0  0  0  0  0  0  0  0  0  0
   -1.8566    4.4927   12.9739 C   0  0  0  0  0  0  0  0  0  0  0  0
   -2.1485    5.6962   12.2782 C   0  0  0  0  0  0  0  0  0  0  0  0
   -2.0827    5.7361   10.8584 C   0  0  0  0  0  0  0  0  0  0  0  0
   -1.7031    4.5670   10.1329 C   0  0  0  0  0  0  0  0  0  0  0  0
   -1.4151    3.3643   10.8345 C   0  0  0  0  0  0  0  0  0  0  0  0
   -0.5016    4.6841   18.7808 C   0  0  0  0  0  0  0  0  0  0  0  0
    0.1583    4.8137   17.5377 C   0  0  0  0  0  0  0  0  0  0  0  0
   -0.7419    4.6551   15.1443 C   0  0  0  0  0  0  0  0  0  0  0  0
   -1.9180    4.4460   14.3737 C   0  0  0  0  0  0  0  0  0  0  0  0
   -3.1572    4.1966   15.0252 C   0  0  0  0  0  0  0  0  0  0  0  0
   -3.2197    4.1587   16.4444 C   0  0  0  0  0  0  0  0  0  0  0  0
   -2.0375    4.3832   17.2170 C   0  0  0  0  0  0  0  0  0  0  0  0
   -0.8105    4.6296   16.5743 C   0  0  0  0  0  0  0  0  0  0  0  0
  1  6  1  0  0  0  0
  2  4  1  0  0  0  0
  3  7  1  0  0  0  0
  4  5  1  0  0  0  0
  6  2  1  0  0  0  0
  7  8  1  0  0  0  0
  8  9  1  0  0  0  0
  9 10  1  0  0  0  0
 10 11  1  0  0  0  0
 10 12  1  0  0  0  0
 11 13  1  0  0  0  0
 13 15  1  0  0  0  0
 14 12  1  0  0  0  0
 15 14  1  0  0  0  0
 16 18  2  0  0  0  0
 16 22  1  0  0  0  0
 17 23  1  0  0  0  0
 17 29  1  0  0  0  0
 18 19  1  0  0  0  0
 18 26  1  0  0  0  0
 19 20  2  0  0  0  0
 20  3  1  0  0  0  0
 20 21  1  0  0  0  0
 21  5  1  0  0  0  0
 21 22  2  0  0  0  0
 23 24  2  0  0  0  0
 24 30  1  0  0  0  0
 25 26  2  0  0  0  0
 25 30  1  0  0  0  0
 26 27  1  0  0  0  0
 27 28  2  0  0  0  0
 28 29  1  0  0  0  0
 29 30  2  0  0  0  0
M  END
>  <CHROM.1>
38.53909461,-174.25316052,-154.64474515,-171.36665408,73.48110456,174.60075284
-101.40435762,-165.73693229,85.42728797,-69.28257696,133.27416228,-2.94890756
5.23641258,11.15877345,-2.04893215,-0.46571271,1.53644802

>  <Name>
1uts_lig

>  <RI>
0

>  <Rbt.Current_Directory>
/home/itssahil/PROJECTS/Mol_Feturizer/New_Systems/rnas/1uts

>  <Rbt.Executable>
rbdock ($Id: //depot/dev/client3/rdock/2013.1/src/exe/rbdock.cxx#4 $)

>  <Rbt.Library>
libRbt.so (2013.1, Build901 2013/11/27)

>  <Rbt.Parameter_File>
/export/apps/rDock/src/rDock_2013.1_src/data/scripts/dock_solv.prm

>  <Rbt.Receptor>
prm/pocket_docking_8.prm

>  <SCORE>
-36.6503

>  <SCORE.INTER>
-36.8226

>  <SCORE.INTER.CONST>
1

>  <SCORE.INTER.POLAR>
-2.32561

>  <SCORE.INTER.ROT>
10

>  <SCORE.INTER.SOLV>
10.7339

>  <SCORE.INTER.VDW>
-30.641

>  <SCORE.INTER.norm>
-1.22742

>  <SCORE.INTRA>
0.158031

>  <SCORE.INTRA.DIHEDRAL>
-1.67223

>  <SCORE.INTRA.DIHEDRAL.0>
18.0451

>  <SCORE.INTRA.POLAR>
0.196815

>  <SCORE.INTRA.POLAR.0>
-0.196815

>  <SCORE.INTRA.REPUL>
0

>  <SCORE.INTRA.REPUL.0>
0

>  <SCORE.INTRA.SOLV>
-0.405713

>  <SCORE.INTRA.SOLV.lig_0>
-14.7906

>  <SCORE.INTRA.VDW>
0.527831

>  <SCORE.INTRA.VDW.0>
-0.411701

>  <SCORE.INTRA.norm>
0.00526771

>  <SCORE.RESTR>
0.0142703

>  <SCORE.RESTR.CAVITY>
0.0142703

>  <SCORE.RESTR.norm>
0.000475678

>  <SCORE.SYSTEM>
0

>  <SCORE.SYSTEM.CONST>
0

>  <SCORE.SYSTEM.DIHEDRAL>
0

>  <SCORE.SYSTEM.SOLV>
0

>  <SCORE.SYSTEM.norm>
0

>  <SCORE.heavy>
30

>  <SCORE.norm>
-1.22168

>  <RMSD>
11.558

$$$$
1uts_lig
 OpenBabel11021811413D
libRbt.so/2013.1/901 2013/11/27
 30 33  0  0  0  0  0  0  0  0999 V2000
   -1.4887   -3.2664   14.7118 N   0  0  0  0  0  0  0  0  0  0  0  0
   -0.3222   -2.0308   16.4866 C   0  0  0  0  0  0  0  0  0  0  0  0
    4.7144   -2.1388   17.7533 C   0  0  0  0  0  0  0  0  0  0  0  0
    0.7404   -3.0875   16.8021 C   0  0  0  0  0  0  0  0  0  0  0  0
    1.7946   -2.4883   17.5698 O   0  0  0  0  0  0  0  0  0  0  0  0
   -1.6257   -2.7213   16.0813 C   0  0  0  0  0  0  0  0  0  0  0  0
    3.8289   -0.9527   17.7899 N   0  0  0  0  0  0  0  0  0  0  0  0
    4.3978    0.1236   16.9361 C   0  0  0  0  0  0  0  0  0  0  0  0
    3.4164    1.2968   16.8594 C   0  0  0  0  0  0  0  0  0  0  0  0
    4.1667    2.5528   16.6347 N   0  0  0  0  0  0  0  0  0  0  0  0
    4.7952    2.9867   17.9155 C   0  0  0  0  0  0  0  0  0  0  0  0
    3.2353    3.6014   16.1309 C   0  0  0  0  0  0  0  0  0  0  0  0
    5.5724    4.2932   17.6869 C   0  0  0  0  0  0  0  0  0  0  0  0
    4.0117    4.9113   15.9051 C   0  0  0  0  0  0  0  0  0  0  0  0
    4.6411    5.3427   17.1842 N   0  0  0  0  0  0  0  0  0  0  0  0
    2.6911   -5.6555   19.4128 C   0  0  0  0  0  0  0  0  0  0  0  0
    7.2432   -9.4291   22.0682 N   0  0  0  0  0  0  0  0  0  0  0  0
    4.0982   -5.5341   19.5060 C   0  0  0  0  0  0  0  0  0  0  0  0
    4.7475   -4.3921   18.9657 C   0  0  0  0  0  0  0  0  0  0  0  0
    3.9884   -3.3690   18.3343 C   0  0  0  0  0  0  0  0  0  0  0  0
    2.5713   -3.5012   18.2269 C   0  0  0  0  0  0  0  0  0  0  0  0
    1.9265   -4.6450   18.7723 C   0  0  0  0  0  0  0  0  0  0  0  0
    8.3989   -8.6343   22.2419 C   0  0  0  0  0  0  0  0  0  0  0  0
    8.2111   -7.3438   21.6968 C   0  0  0  0  0  0  0  0  0  0  0  0
    6.1784   -6.2996   20.5385 C   0  0  0  0  0  0  0  0  0  0  0  0
    4.8402   -6.5476   20.1287 C   0  0  0  0  0  0  0  0  0  0  0  0
    4.2534   -7.8226   20.3576 C   0  0  0  0  0  0  0  0  0  0  0  0
    5.0035   -8.8462   20.9973 C   0  0  0  0  0  0  0  0  0  0  0  0
    6.3450   -8.5892   21.4209 C   0  0  0  0  0  0  0  0  0  0  0  0
    6.9273   -7.3287   21.1947 C   0  0  0  0  0  0  0  0  0  0  0  0
  1  6  1  0  0  0  0
  2  4  1  0  0  0  0
  3  7  1  0  0  0  0
  4  5  1  0  0  0  0
  6  2  1  0  0  0  0
  7  8  1  0  0  0  0
  8  9  1  0  0  0  0
  9 10  1  0  0  0  0
 10 11  1  0  0  0  0
 10 12  1  0  0  0  0
 11 13  1  0  0  0  0
 13 15  1  0  0  0  0
 14 12  1  0  0  0  0
 15 14  1  0  0  0  0
 16 18  2  0  0  0  0
 16 22  1  0  0  0  0
 17 23  1  0  0  0  0
 17 29  1  0  0  0  0
 18 19  1  0  0  0  0
 18 26  1  0  0  0  0
 19 20  2  0  0  0  0
 20  3  1  0  0  0  0
 20 21  1  0  0  0  0
 21  5  1  0  0  0  0
 21 22  2  0  0  0  0
 23 24  2  0  0  0  0
 24 30  1  0  0  0  0
 25 26  2  0  0  0  0
 25 30  1  0  0  0  0
 26 27  1  0  0  0  0
 27 28  2  0  0  0  0
 28 29  1  0  0  0  0
 29 30  2  0  0  0  0
M  END
>  <CHROM.1>
38.57419270,-161.91740369,-166.04539553,161.99400031,-74.41187359,174.33753037
151.88701783,-77.01112683,-163.76592556,-150.91323500,141.43158457,3.88834639
-2.78035391,18.43133913,1.83509595,-0.46471512,-0.28017486

>  <Name>
1uts_lig

>  <RI>
0

>  <Rbt.Current_Directory>
/home/itssahil/PROJECTS/Mol_Feturizer/New_Systems/rnas/1uts

>  <Rbt.Executable>
rbdock ($Id: //depot/dev/client3/rdock/2013.1/src/exe/rbdock.cxx#4 $)

>  <Rbt.Library>
libRbt.so (2013.1, Build901 2013/11/27)

>  <Rbt.Parameter_File>
/export/apps/rDock/src/rDock_2013.1_src/data/scripts/dock_solv.prm

>  <Rbt.Receptor>
prm/pocket_docking_8.prm

>  <SCORE>
-18.8286

>  <SCORE.INTER>
-16.5331

>  <SCORE.INTER.CONST>
1

>  <SCORE.INTER.POLAR>
-2.03686

>  <SCORE.INTER.ROT>
10

>  <SCORE.INTER.SOLV>
3.79383

>  <SCORE.INTER.VDW>
-15.7638

>  <SCORE.INTER.norm>
-0.551102

>  <SCORE.INTRA>
-2.29554

>  <SCORE.INTRA.DIHEDRAL>
-6.94856

>  <SCORE.INTRA.DIHEDRAL.0>
18.0451

>  <SCORE.INTRA.POLAR>
-0.579437

>  <SCORE.INTRA.POLAR.0>
-0.196815

>  <SCORE.INTRA.REPUL>
0

>  <SCORE.INTRA.REPUL.0>
0

>  <SCORE.INTRA.SOLV>
-0.148308

>  <SCORE.INTRA.SOLV.lig_0>
-14.7906

>  <SCORE.INTRA.VDW>
3.22298

>  <SCORE.INTRA.VDW.0>
-0.411701

>  <SCORE.INTRA.norm>
-0.076518

>  <SCORE.RESTR>
0

>  <SCORE.RESTR.CAVITY>
0

>  <SCORE.RESTR.norm>
0

>  <SCORE.SYSTEM>
0

>  <SCORE.SYSTEM.CONST>
0

>  <SCORE.SYSTEM.DIHEDRAL>
0

>  <SCORE.SYSTEM.SOLV>
0

>  <SCORE.SYSTEM.norm>
0

>  <SCORE.heavy>
30

>  <SCORE.norm>
-0.62762

>  <RMSD>
11.859

$$$$
1uts_lig
 OpenBabel11021811413D
libRbt.so/2013.1/901 2013/11/27
 30 33  0  0  0  0  0  0  0  0999 V2000
  -10.2068   -0.9958    8.5620 N   0  0  0  0  0  0  0  0  0  0  0  0
   -9.8602   -2.4979   10.4752 C   0  0  0  0  0  0  0  0  0  0  0  0
  -10.0516   -6.3780   12.2175 C   0  0  0  0  0  0  0  0  0  0  0  0
  -10.5948   -3.3587   11.5071 C   0  0  0  0  0  0  0  0  0  0  0  0
  -11.5156   -4.2287   10.8325 O   0  0  0  0  0  0  0  0  0  0  0  0
  -10.8684   -1.6224    9.7287 C   0  0  0  0  0  0  0  0  0  0  0  0
   -9.2567   -7.5597   12.6224 N   0  0  0  0  0  0  0  0  0  0  0  0
   -8.7504   -7.3720   14.0078 C   0  0  0  0  0  0  0  0  0  0  0  0
   -7.3001   -6.8817   13.9672 C   0  0  0  0  0  0  0  0  0  0  0  0
   -6.6908   -7.0342   15.3075 N   0  0  0  0  0  0  0  0  0  0  0  0
   -5.2221   -6.7949   15.2108 C   0  0  0  0  0  0  0  0  0  0  0  0
   -6.9614   -8.4072   15.8200 C   0  0  0  0  0  0  0  0  0  0  0  0
   -4.5851   -6.9562   16.6006 C   0  0  0  0  0  0  0  0  0  0  0  0
   -6.3208   -8.5712   17.2100 C   0  0  0  0  0  0  0  0  0  0  0  0
   -4.8543   -8.3296   17.1131 N   0  0  0  0  0  0  0  0  0  0  0  0
  -10.1027   -6.0507    7.8466 C   0  0  0  0  0  0  0  0  0  0  0  0
   -6.7151  -10.7770    5.1637 N   0  0  0  0  0  0  0  0  0  0  0  0
   -9.3722   -7.0880    8.4740 C   0  0  0  0  0  0  0  0  0  0  0  0
   -9.3594   -7.1880    9.8908 C   0  0  0  0  0  0  0  0  0  0  0  0
  -10.0807   -6.2514   10.6810 C   0  0  0  0  0  0  0  0  0  0  0  0
  -10.8034   -5.1965   10.0468 C   0  0  0  0  0  0  0  0  0  0  0  0
  -10.8151   -5.1032    8.6281 C   0  0  0  0  0  0  0  0  0  0  0  0
   -7.8204  -11.1066    4.3466 C   0  0  0  0  0  0  0  0  0  0  0  0
   -8.9784  -10.4082    4.7575 C   0  0  0  0  0  0  0  0  0  0  0  0
   -9.3220   -8.7065    6.6417 C   0  0  0  0  0  0  0  0  0  0  0  0
   -8.6622   -8.0069    7.6885 C   0  0  0  0  0  0  0  0  0  0  0  0
   -7.2801   -8.2356    7.9326 C   0  0  0  0  0  0  0  0  0  0  0  0
   -6.5594   -9.1605    7.1297 C   0  0  0  0  0  0  0  0  0  0  0  0
   -7.2227   -9.8524    6.0684 C   0  0  0  0  0  0  0  0  0  0  0  0
   -8.5902   -9.6279    5.8257 C   0  0  0  0  0  0  0  0  0  0  0  0
  1  6  1  0  0  0  0
  2  4  1  0  0  0  0
  3  7  1  0  0  0  0
  4  5  1  0  0  0  0
  6  2  1  0  0  0  0
  7  8  1  0  0  0  0
  8  9  1  0  0  0  0
  9 10  1  0  0  0  0
 10 11  1  0  0  0  0
 10 12  1  0  0  0  0
 11 13  1  0  0  0  0
 13 15  1  0  0  0  0
 14 12  1  0  0  0  0
 15 14  1  0  0  0  0
 16 18  2  0  0  0  0
 16 22  1  0  0  0  0
 17 23  1  0  0  0  0
 17 29  1  0  0  0  0
 18 19  1  0  0  0  0
 18 26  1  0  0  0  0
 19 20  2  0  0  0  0
 20  3  1  0  0  0  0
 20 21  1  0  0  0  0
 21  5  1  0  0  0  0
 21 22  2  0  0  0  0
 23 24  2  0  0  0  0
 24 30  1  0  0  0  0
 25 26  2  0  0  0  0
 25 30  1  0  0  0  0
 26 27  1  0  0  0  0
 27 28  2  0  0  0  0
 28 29  1  0  0  0  0
 29 30  2  0  0  0  0
M  END
>  <CHROM.1>
-150.19800284,62.08743948,156.13976927,67.17495406,-168.87601585,-98.55166598
-165.27686314,169.75883645,-53.11451713,-1.89033426,71.12173906,-8.46617050
-6.91086371,10.57047403,1.96425084,0.96920721,-2.03438659

>  <Name>
1uts_lig

>  <RI>
0

>  <Rbt.Current_Directory>
/home/itssahil/PROJECTS/Mol_Feturizer/New_Systems/rnas/1uts

>  <Rbt.Executable>
rbdock ($Id: //depot/dev/client3/rdock/2013.1/src/exe/rbdock.cxx#4 $)

>  <Rbt.Library>
libRbt.so (2013.1, Build901 2013/11/27)

>  <Rbt.Parameter_File>
/export/apps/rDock/src/rDock_2013.1_src/data/scripts/dock_solv.prm

>  <Rbt.Receptor>
prm/blind_docking_80.prm

>  <SCORE>
-25.2094

>  <SCORE.INTER>
-30.1923

>  <SCORE.INTER.CONST>
1

>  <SCORE.INTER.POLAR>
-2.42416

>  <SCORE.INTER.ROT>
10

>  <SCORE.INTER.SOLV>
9.18467

>  <SCORE.INTER.VDW>
-25.3759

>  <SCORE.INTER.norm>
-1.00641

>  <SCORE.INTRA>
4.43617

>  <SCORE.INTRA.DIHEDRAL>
-2.57435

>  <SCORE.INTRA.DIHEDRAL.0>
18.0451

>  <SCORE.INTRA.POLAR>
0.196815

>  <SCORE.INTRA.POLAR.0>
-0.196815

>  <SCORE.INTRA.REPUL>
0

>  <SCORE.INTRA.REPUL.0>
0

>  <SCORE.INTRA.SOLV>
-0.511167

>  <SCORE.INTRA.SOLV.lig_0>
-14.7906

>  <SCORE.INTRA.VDW>
5.30975

>  <SCORE.INTRA.VDW.0>
-0.411701

>  <SCORE.INTRA.norm>
0.147872

>  <SCORE.RESTR>
0.546786

>  <SCORE.RESTR.CAVITY>
0.546786

>  <SCORE.RESTR.norm>
0.0182262

>  <SCORE.SYSTEM>
0

>  <SCORE.SYSTEM.CONST>
0

>  <SCORE.SYSTEM.DIHEDRAL>
0

>  <SCORE.SYSTEM.SOLV>
0

>  <SCORE.SYSTEM.norm>
0

>  <SCORE.heavy>
30

>  <SCORE.norm>
-0.840312

>  <RMSD>
15.735

$$$$
1uts_lig
 OpenBabel11021811413D
libRbt.so/2013.1/901 2013/11/27
 30 33  0  0  0  0  0  0  0  0999 V2000
   -6.3837  -10.4818    5.7723 N   0  0  0  0  0  0  0  0  0  0  0  0
   -6.0922   -8.1831    4.9548 C   0  0  0  0  0  0  0  0  0  0  0  0
   -8.5172   -8.6263    7.4675 C   0  0  0  0  0  0  0  0  0  0  0  0
   -7.1614   -7.5334    4.0717 C   0  0  0  0  0  0  0  0  0  0  0  0
   -8.4548   -7.7436    4.6572 O   0  0  0  0  0  0  0  0  0  0  0  0
   -5.9735   -9.6678    4.6059 C   0  0  0  0  0  0  0  0  0  0  0  0
   -9.7229   -9.1647    8.1372 N   0  0  0  0  0  0  0  0  0  0  0  0
   -9.4812   -9.2626    9.6011 C   0  0  0  0  0  0  0  0  0  0  0  0
   -9.9660   -7.9850   10.2926 C   0  0  0  0  0  0  0  0  0  0  0  0
  -10.0508   -8.2165   11.7520 N   0  0  0  0  0  0  0  0  0  0  0  0
  -11.3840   -7.7659   12.2454 C   0  0  0  0  0  0  0  0  0  0  0  0
   -8.9616   -7.4638   12.4359 C   0  0  0  0  0  0  0  0  0  0  0  0
  -11.4744   -8.0014   13.7619 C   0  0  0  0  0  0  0  0  0  0  0  0
   -9.0533   -7.6958   13.9549 C   0  0  0  0  0  0  0  0  0  0  0  0
  -10.3859   -7.2478   14.4465 N   0  0  0  0  0  0  0  0  0  0  0  0
   -9.1713   -4.4422    6.3362 C   0  0  0  0  0  0  0  0  0  0  0  0
  -10.1831   -1.1021   11.7987 N   0  0  0  0  0  0  0  0  0  0  0  0
   -9.2273   -4.8286    7.6966 C   0  0  0  0  0  0  0  0  0  0  0  0
   -9.0149   -6.1861    8.0563 C   0  0  0  0  0  0  0  0  0  0  0  0
   -8.7430   -7.1579    7.0544 C   0  0  0  0  0  0  0  0  0  0  0  0
   -8.7031   -6.7690    5.6817 C   0  0  0  0  0  0  0  0  0  0  0  0
   -8.9135   -5.4081    5.3279 C   0  0  0  0  0  0  0  0  0  0  0  0
   -9.7475   -1.9098   12.8738 C   0  0  0  0  0  0  0  0  0  0  0  0
   -9.3374   -3.1824   12.4157 C   0  0  0  0  0  0  0  0  0  0  0  0
   -9.2484   -4.1562   10.0476 C   0  0  0  0  0  0  0  0  0  0  0  0
   -9.4973   -3.8651    8.6787 C   0  0  0  0  0  0  0  0  0  0  0  0
  -10.0138   -2.5934    8.3069 C   0  0  0  0  0  0  0  0  0  0  0  0
  -10.2783   -1.6144    9.3025 C   0  0  0  0  0  0  0  0  0  0  0  0
  -10.0138   -1.9053   10.6774 C   0  0  0  0  0  0  0  0  0  0  0  0
   -9.5034   -3.1632   11.0472 C   0  0  0  0  0  0  0  0  0  0  0  0
  1  6  1  0  0  0  0
  2  4  1  0  0  0  0
  3  7  1  0  0  0  0
  4  5  1  0  0  0  0
  6  2  1  0  0  0  0
  7  8  1  0  0  0  0
  8  9  1  0  0  0  0
  9 10  1  0  0  0  0
 10 11  1  0  0  0  0
 10 12  1  0  0  0  0
 11 13  1  0  0  0  0
 13 15  1  0  0  0  0
 14 12  1  0  0  0  0
 15 14  1  0  0  0  0
 16 18  2  0  0  0  0
 16 22  1  0  0  0  0
 17 23  1  0  0  0  0
 17 29  1  0  0  0  0
 18 19  1  0  0  0  0
 18 26  1  0  0  0  0
 19 20  2  0  0  0  0
 20  3  1  0  0  0  0
 20 21  1  0  0  0  0
 21  5  1  0  0  0  0
 21 22  2  0  0  0  0
 23 24  2  0  0  0  0
 24 30  1  0  0  0  0
 25 26  2  0  0  0  0
 25 30  1  0  0  0  0
 26 27  1  0  0  0  0
 27 28  2  0  0  0  0
 28 29  1  0  0  0  0
 29 30  2  0  0  0  0
M  END
>  <CHROM.1>
63.74439877,84.18386411,-105.30156639,82.32885794,-115.53118895,92.89546439
165.50167103,-130.20458022,-165.09375403,60.97401227,-110.37024043,-9.13942637
-6.25559675,9.12613287,0.13162678,-1.25190223,2.76532897

>  <Name>
1uts_lig

>  <RI>
0

>  <Rbt.Current_Directory>
/home/itssahil/PROJECTS/Mol_Feturizer/New_Systems/rnas/1uts

>  <Rbt.Executable>
rbdock ($Id: //depot/dev/client3/rdock/2013.1/src/exe/rbdock.cxx#4 $)

>  <Rbt.Library>
libRbt.so (2013.1, Build901 2013/11/27)

>  <Rbt.Parameter_File>
/export/apps/rDock/src/rDock_2013.1_src/data/scripts/dock_solv.prm

>  <Rbt.Receptor>
prm/blind_docking_60.prm

>  <SCORE>
-20.0778

>  <SCORE.INTER>
-30.8135

>  <SCORE.INTER.CONST>
1

>  <SCORE.INTER.POLAR>
-2.66981

>  <SCORE.INTER.ROT>
10

>  <SCORE.INTER.SOLV>
9.14892

>  <SCORE.INTER.VDW>
-24.9593

>  <SCORE.INTER.norm>
-1.02712

>  <SCORE.INTRA>
4.63425

>  <SCORE.INTRA.DIHEDRAL>
6.07993

>  <SCORE.INTRA.DIHEDRAL.0>
18.0451

>  <SCORE.INTRA.POLAR>
0.196815

>  <SCORE.INTRA.POLAR.0>
-0.196815

>  <SCORE.INTRA.REPUL>
0

>  <SCORE.INTRA.REPUL.0>
0

>  <SCORE.INTRA.SOLV>
-0.152884

>  <SCORE.INTRA.SOLV.lig_0>
-14.7906

>  <SCORE.INTRA.VDW>
1.00155

>  <SCORE.INTRA.VDW.0>
-0.411701

>  <SCORE.INTRA.norm>
0.154475

>  <SCORE.RESTR>
6.10146

>  <SCORE.RESTR.CAVITY>
6.10146

>  <SCORE.RESTR.norm>
0.203382

>  <SCORE.SYSTEM>
0

>  <SCORE.SYSTEM.CONST>
0

>  <SCORE.SYSTEM.DIHEDRAL>
0

>  <SCORE.SYSTEM.SOLV>
0

>  <SCORE.SYSTEM.norm>
0

>  <SCORE.heavy>
30

>  <SCORE.norm>
-0.66926

>  <RMSD>
16.434

$$$$
1uts_lig
 OpenBabel11021811413D
libRbt.so/2013.1/901 2013/11/27
 30 33  0  0  0  0  0  0  0  0999 V2000
  -11.9962   -4.4238    7.3554 N   0  0  0  0  0  0  0  0  0  0  0  0
   -9.5814   -4.3980    7.8086 C   0  0  0  0  0  0  0  0  0  0  0  0
  -10.3844   -7.2566   10.0308 C   0  0  0  0  0  0  0  0  0  0  0  0
  -10.0469   -3.5263    8.9785 C   0  0  0  0  0  0  0  0  0  0  0  0
  -10.7653   -4.3370    9.9200 O   0  0  0  0  0  0  0  0  0  0  0  0
  -10.7563   -5.2301    7.2915 C   0  0  0  0  0  0  0  0  0  0  0  0
   -9.6756   -8.5552    9.9748 N   0  0  0  0  0  0  0  0  0  0  0  0
   -9.4060   -8.9180    8.5583 C   0  0  0  0  0  0  0  0  0  0  0  0
   -8.5244   -7.8475    7.9084 C   0  0  0  0  0  0  0  0  0  0  0  0
   -8.0342   -8.3399    6.6014 N   0  0  0  0  0  0  0  0  0  0  0  0
   -6.6080   -8.7546    6.7350 C   0  0  0  0  0  0  0  0  0  0  0  0
   -8.1685   -7.2592    5.5842 C   0  0  0  0  0  0  0  0  0  0  0  0
   -6.0941   -9.2632    5.3784 C   0  0  0  0  0  0  0  0  0  0  0  0
   -7.6507   -7.7660    4.2260 C   0  0  0  0  0  0  0  0  0  0  0  0
   -6.2270   -8.1822    4.3608 N   0  0  0  0  0  0  0  0  0  0  0  0
   -8.3018   -4.5408   12.7698 C   0  0  0  0  0  0  0  0  0  0  0  0
   -4.8081   -8.1714   16.8393 N   0  0  0  0  0  0  0  0  0  0  0  0
   -8.1050   -5.9390   12.8677 C   0  0  0  0  0  0  0  0  0  0  0  0
   -8.7833   -6.8134   11.9773 C   0  0  0  0  0  0  0  0  0  0  0  0
   -9.6571   -6.2886   10.9859 C   0  0  0  0  0  0  0  0  0  0  0  0
   -9.8667   -4.8794   10.8995 C   0  0  0  0  0  0  0  0  0  0  0  0
   -9.1826   -4.0088   11.7914 C   0  0  0  0  0  0  0  0  0  0  0  0
   -5.7466   -9.0999   17.3441 C   0  0  0  0  0  0  0  0  0  0  0  0
   -6.9788   -8.9955   16.6598 C   0  0  0  0  0  0  0  0  0  0  0  0
   -7.6921   -7.4724   14.7272 C   0  0  0  0  0  0  0  0  0  0  0  0
   -7.2431   -6.4491   13.8487 C   0  0  0  0  0  0  0  0  0  0  0  0
   -5.9167   -5.9491   13.9622 C   0  0  0  0  0  0  0  0  0  0  0  0
   -5.0410   -6.4735   14.9510 C   0  0  0  0  0  0  0  0  0  0  0  0
   -5.4913   -7.5127   15.8242 C   0  0  0  0  0  0  0  0  0  0  0  0
   -6.8034   -8.0082   15.7138 C   0  0  0  0  0  0  0  0  0  0  0  0
  1  6  1  0  0  0  0
  2  4  1  0  0  0  0
  3  7  1  0  0  0  0
  4  5  1  0  0  0  0
  6  2  1  0  0  0  0
  7  8  1  0  0  0  0
  8  9  1  0  0  0  0
  9 10  1  0  0  0  0
 10 11  1  0  0  0  0
 10 12  1  0  0  0  0
 11 13  1  0  0  0  0
 13 15  1  0  0  0  0
 14 12  1  0  0  0  0
 15 14  1  0  0  0  0
 16 18  2  0  0  0  0
 16 22  1  0  0  0  0
 17 23  1  0  0  0  0
 17 29  1  0  0  0  0
 18 19  1  0  0  0  0
 18 26  1  0  0  0  0
 19 20  2  0  0  0  0
 20  3  1  0  0  0  0
 20 21  1  0  0  0  0
 21  5  1  0  0  0  0
 21 22  2  0  0  0  0
 23 24  2  0  0  0  0
 24 30  1  0  0  0  0
 25 26  2  0  0  0  0
 25 30  1  0  0  0  0
 26 27  1  0  0  0  0
 27 28  2  0  0  0  0
 28 29  1  0  0  0  0
 29 30  2  0  0  0  0
M  END
>  <CHROM.1>
175.07857060,49.19932451,-127.74697602,90.03541689,37.12223144,60.57094422
168.57589880,-103.52851163,127.95245810,-21.14546788,-115.48197545,-8.17280055
-6.82725444,10.52513731,1.91839883,0.77891628,-1.76554010

>  <Name>
1uts_lig

>  <RI>
0

>  <Rbt.Current_Directory>
/home/itssahil/PROJECTS/Mol_Feturizer/New_Systems/rnas/1uts

>  <Rbt.Executable>
rbdock ($Id: //depot/dev/client3/rdock/2013.1/src/exe/rbdock.cxx#4 $)

>  <Rbt.Library>
libRbt.so (2013.1, Build901 2013/11/27)

>  <Rbt.Parameter_File>
/export/apps/rDock/src/rDock_2013.1_src/data/scripts/dock_solv.prm

>  <Rbt.Receptor>
prm/blind_docking_80.prm

>  <SCORE>
-27.5169

>  <SCORE.INTER>
-33.7885

>  <SCORE.INTER.CONST>
1

>  <SCORE.INTER.POLAR>
-1.60637

>  <SCORE.INTER.ROT>
10

>  <SCORE.INTER.SOLV>
8.39507

>  <SCORE.INTER.VDW>
-30.2361

>  <SCORE.INTER.norm>
-1.12628

>  <SCORE.INTRA>
5.11963

>  <SCORE.INTRA.DIHEDRAL>
2.38316

>  <SCORE.INTRA.DIHEDRAL.0>
18.0451

>  <SCORE.INTRA.POLAR>
-0.258587

>  <SCORE.INTRA.POLAR.0>
-0.196815

>  <SCORE.INTRA.REPUL>
0

>  <SCORE.INTRA.REPUL.0>
0

>  <SCORE.INTRA.SOLV>
0.0387159

>  <SCORE.INTRA.SOLV.lig_0>
-14.7906

>  <SCORE.INTRA.VDW>
4.78788

>  <SCORE.INTRA.VDW.0>
-0.411701

>  <SCORE.INTRA.norm>
0.170654

>  <SCORE.RESTR>
1.15195

>  <SCORE.RESTR.CAVITY>
1.15195

>  <SCORE.RESTR.norm>
0.0383984

>  <SCORE.SYSTEM>
0

>  <SCORE.SYSTEM.CONST>
0

>  <SCORE.SYSTEM.DIHEDRAL>
0

>  <SCORE.SYSTEM.SOLV>
0

>  <SCORE.SYSTEM.norm>
0

>  <SCORE.heavy>
30

>  <SCORE.norm>
-0.917229

>  <RMSD>
16.459

$$$$
1uts_lig
 OpenBabel11021811413D
libRbt.so/2013.1/901 2013/11/27
 30 33  0  0  0  0  0  0  0  0999 V2000
  -13.1637   -1.4640   10.5933 N   0  0  0  0  0  0  0  0  0  0  0  0
  -10.7339   -1.6487   10.2780 C   0  0  0  0  0  0  0  0  0  0  0  0
  -10.0064   -6.7852    9.1963 C   0  0  0  0  0  0  0  0  0  0  0  0
   -9.6905   -2.4989    9.5475 C   0  0  0  0  0  0  0  0  0  0  0  0
  -10.1534   -3.8549    9.4662 O   0  0  0  0  0  0  0  0  0  0  0  0
  -12.1062   -1.8598    9.6359 C   0  0  0  0  0  0  0  0  0  0  0  0
   -9.0599   -7.8758    8.8693 N   0  0  0  0  0  0  0  0  0  0  0  0
   -8.8386   -7.9230    7.3997 C   0  0  0  0  0  0  0  0  0  0  0  0
   -8.5860   -9.3681    6.9601 C   0  0  0  0  0  0  0  0  0  0  0  0
   -7.6527   -9.3776    5.8114 N   0  0  0  0  0  0  0  0  0  0  0  0
   -6.4123   -8.6357    6.1786 C   0  0  0  0  0  0  0  0  0  0  0  0
   -8.3102   -8.7414    4.6351 C   0  0  0  0  0  0  0  0  0  0  0  0
   -5.4419   -8.6401    4.9864 C   0  0  0  0  0  0  0  0  0  0  0  0
   -7.3381   -8.7419    3.4416 C   0  0  0  0  0  0  0  0  0  0  0  0
   -6.0986   -8.0028    3.8100 N   0  0  0  0  0  0  0  0  0  0  0  0
   -8.7158   -4.7248   12.8438 C   0  0  0  0  0  0  0  0  0  0  0  0
   -6.5133   -8.9371   17.1467 N   0  0  0  0  0  0  0  0  0  0  0  0
   -8.6457   -6.1360   12.7610 C   0  0  0  0  0  0  0  0  0  0  0  0
   -9.0659   -6.7974   11.5763 C   0  0  0  0  0  0  0  0  0  0  0  0
   -9.5540   -6.0463   10.4720 C   0  0  0  0  0  0  0  0  0  0  0  0
   -9.6392   -4.6245   10.5637 C   0  0  0  0  0  0  0  0  0  0  0  0
   -9.2141   -3.9677   11.7509 C   0  0  0  0  0  0  0  0  0  0  0  0
   -5.2064   -8.4033   17.0765 C   0  0  0  0  0  0  0  0  0  0  0  0
   -5.0849   -7.5058   15.9914 C   0  0  0  0  0  0  0  0  0  0  0  0
   -6.8093   -6.7348   14.2606 C   0  0  0  0  0  0  0  0  0  0  0  0
   -8.1647   -6.8700   13.8544 C   0  0  0  0  0  0  0  0  0  0  0  0
   -9.0331   -7.7452   14.5630 C   0  0  0  0  0  0  0  0  0  0  0  0
   -8.5468   -8.4816   15.6769 C   0  0  0  0  0  0  0  0  0  0  0  0
   -7.1863   -8.3329   16.0916 C   0  0  0  0  0  0  0  0  0  0  0  0
   -6.3255   -7.4679   15.3914 C   0  0  0  0  0  0  0  0  0  0  0  0
  1  6  1  0  0  0  0
  2  4  1  0  0  0  0
  3  7  1  0  0  0  0
  4  5  1  0  0  0  0
  6  2  1  0  0  0  0
  7  8  1  0  0  0  0
  8  9  1  0  0  0  0
  9 10  1  0  0  0  0
 10 11  1  0  0  0  0
 10 12  1  0  0  0  0
 11 13  1  0  0  0  0
 13 15  1  0  0  0  0
 14 12  1  0  0  0  0
 15 14  1  0  0  0  0
 16 18  2  0  0  0  0
 16 22  1  0  0  0  0
 17 23  1  0  0  0  0
 17 29  1  0  0  0  0
 18 19  1  0  0  0  0
 18 26  1  0  0  0  0
 19 20  2  0  0  0  0
 20  3  1  0  0  0  0
 20 21  1  0  0  0  0
 21  5  1  0  0  0  0
 21 22  2  0  0  0  0
 23 24  2  0  0  0  0
 24 30  1  0  0  0  0
 25 26  2  0  0  0  0
 25 30  1  0  0  0  0
 26 27  1  0  0  0  0
 27 28  2  0  0  0  0
 28 29  1  0  0  0  0
 29 30  2  0  0  0  0
M  END
>  <CHROM.1>
79.09315136,-51.42071849,-139.56692945,-93.99573534,159.48976539,-147.82226816
-147.51360037,54.81722740,-65.60731509,-41.97029406,-157.97961522,-8.42262801
-6.58068802,10.51009921,1.50938719,-0.92588970,1.44900563

>  <Name>
1uts_lig

>  <RI>
0

>  <Rbt.Current_Directory>
/home/itssahil/PROJECTS/Mol_Feturizer/New_Systems/rnas/1uts

>  <Rbt.Executable>
rbdock ($Id: //depot/dev/client3/rdock/2013.1/src/exe/rbdock.cxx#4 $)

>  <Rbt.Library>
libRbt.so (2013.1, Build901 2013/11/27)

>  <Rbt.Parameter_File>
/export/apps/rDock/src/rDock_2013.1_src/data/scripts/dock_solv.prm

>  <Rbt.Receptor>
prm/blind_docking_80.prm

>  <SCORE>
-24.4927

>  <SCORE.INTER>
-33.3738

>  <SCORE.INTER.CONST>
1

>  <SCORE.INTER.POLAR>
-2.10712

>  <SCORE.INTER.ROT>
10

>  <SCORE.INTER.SOLV>
9.56303

>  <SCORE.INTER.VDW>
-28.6798

>  <SCORE.INTER.norm>
-1.11246

>  <SCORE.INTRA>
8.44963

>  <SCORE.INTRA.DIHEDRAL>
2.17926

>  <SCORE.INTRA.DIHEDRAL.0>
18.0451

>  <SCORE.INTRA.POLAR>
0.196815

>  <SCORE.INTRA.POLAR.0>
-0.196815

>  <SCORE.INTRA.REPUL>
0

>  <SCORE.INTRA.REPUL.0>
0

>  <SCORE.INTRA.SOLV>
-0.50842

>  <SCORE.INTRA.SOLV.lig_0>
-14.7906

>  <SCORE.INTRA.VDW>
6.94504

>  <SCORE.INTRA.VDW.0>
-0.411701

>  <SCORE.INTRA.norm>
0.281654

>  <SCORE.RESTR>
0.431412

>  <SCORE.RESTR.CAVITY>
0.431412

>  <SCORE.RESTR.norm>
0.0143804

>  <SCORE.SYSTEM>
0

>  <SCORE.SYSTEM.CONST>
0

>  <SCORE.SYSTEM.DIHEDRAL>
0

>  <SCORE.SYSTEM.SOLV>
0

>  <SCORE.SYSTEM.norm>
0

>  <SCORE.heavy>
30

>  <SCORE.norm>
-0.816424

>  <RMSD>
16.472

$$$$
1uts_lig
 OpenBabel11021811413D
libRbt.so/2013.1/901 2013/11/27
 30 33  0  0  0  0  0  0  0  0999 V2000
   -6.7278   -8.8807   16.7969 N   0  0  0  0  0  0  0  0  0  0  0  0
   -8.5078   -8.0099   15.3441 C   0  0  0  0  0  0  0  0  0  0  0  0
   -8.9474   -4.5880   12.4786 C   0  0  0  0  0  0  0  0  0  0  0  0
   -8.8581   -6.7539   14.5410 C   0  0  0  0  0  0  0  0  0  0  0  0
  -10.0465   -6.9956   13.7734 O   0  0  0  0  0  0  0  0  0  0  0  0
   -7.0008   -8.0467   15.6047 C   0  0  0  0  0  0  0  0  0  0  0  0
  -10.1502   -3.7255   12.4394 N   0  0  0  0  0  0  0  0  0  0  0  0
   -9.7649   -2.3466   12.0380 C   0  0  0  0  0  0  0  0  0  0  0  0
   -9.6874   -2.2544   10.5112 C   0  0  0  0  0  0  0  0  0  0  0  0
  -11.0200   -2.5372    9.9324 N   0  0  0  0  0  0  0  0  0  0  0  0
  -10.9646   -3.8186    9.1717 C   0  0  0  0  0  0  0  0  0  0  0  0
  -11.4168   -1.4160    9.0343 C   0  0  0  0  0  0  0  0  0  0  0  0
  -12.3462   -4.1137    8.5657 C   0  0  0  0  0  0  0  0  0  0  0  0
  -12.7985   -1.7122    8.4240 C   0  0  0  0  0  0  0  0  0  0  0  0
  -12.7430   -2.9933    7.6664 N   0  0  0  0  0  0  0  0  0  0  0  0
   -9.6630   -8.2960   10.2529 C   0  0  0  0  0  0  0  0  0  0  0  0
   -8.0097   -7.6525    4.1052 N   0  0  0  0  0  0  0  0  0  0  0  0
   -9.1504   -7.1555    9.5896 C   0  0  0  0  0  0  0  0  0  0  0  0
   -8.9213   -5.9570   10.3167 C   0  0  0  0  0  0  0  0  0  0  0  0
   -9.2022   -5.9000   11.7095 C   0  0  0  0  0  0  0  0  0  0  0  0
   -9.7344   -7.0462   12.3730 C   0  0  0  0  0  0  0  0  0  0  0  0
   -9.9588   -8.2441   11.6407 C   0  0  0  0  0  0  0  0  0  0  0  0
   -7.4534   -8.9508    4.1592 C   0  0  0  0  0  0  0  0  0  0  0  0
   -7.4378   -9.4389    5.4855 C   0  0  0  0  0  0  0  0  0  0  0  0
   -8.2586   -8.3747    7.6667 C   0  0  0  0  0  0  0  0  0  0  0  0
   -8.8772   -7.2188    8.2160 C   0  0  0  0  0  0  0  0  0  0  0  0
   -9.2246   -6.1306    7.3691 C   0  0  0  0  0  0  0  0  0  0  0  0
   -8.9555   -6.1998    5.9754 C   0  0  0  0  0  0  0  0  0  0  0  0
   -8.3457   -7.3697    5.4236 C   0  0  0  0  0  0  0  0  0  0  0  0
   -8.0008   -8.4471    6.2600 C   0  0  0  0  0  0  0  0  0  0  0  0
  1  6  1  0  0  0  0
  2  4  1  0  0  0  0
  3  7  1  0  0  0  0
  4  5  1  0  0  0  0
  6  2  1  0  0  0  0
  7  8  1  0  0  0  0
  8  9  1  0  0  0  0
  9 10  1  0  0  0  0
 10 11  1  0  0  0  0
 10 12  1  0  0  0  0
 11 13  1  0  0  0  0
 13 15  1  0  0  0  0
 14 12  1  0  0  0  0
 15 14  1  0  0  0  0
 16 18  2  0  0  0  0
 16 22  1  0  0  0  0
 17 23  1  0  0  0  0
 17 29  1  0  0  0  0
 18 19  1  0  0  0  0
 18 26  1  0  0  0  0
 19 20  2  0  0  0  0
 20  3  1  0  0  0  0
 20 21  1  0  0  0  0
 21  5  1  0  0  0  0
 21 22  2  0  0  0  0
 23 24  2  0  0  0  0
 24 30  1  0  0  0  0
 25 26  2  0  0  0  0
 25 30  1  0  0  0  0
 26 27  1  0  0  0  0
 27 28  2  0  0  0  0
 28 29  1  0  0  0  0
 29 30  2  0  0  0  0
M  END
>  <CHROM.1>
28.47483442,152.94556543,-131.06945792,-111.04288892,156.54812934,83.94144685
61.94398907,-113.06850483,-41.60025603,89.11047499,-62.66481254,-9.44291976
-5.94856215,10.02022907,-1.40487759,1.03803958,-1.65487789

>  <Name>
1uts_lig

>  <RI>
0

>  <Rbt.Current_Directory>
/home/itssahil/PROJECTS/Mol_Feturizer/New_Systems/rnas/1uts

>  <Rbt.Executable>
rbdock ($Id: //depot/dev/client3/rdock/2013.1/src/exe/rbdock.cxx#4 $)

>  <Rbt.Library>
libRbt.so (2013.1, Build901 2013/11/27)

>  <Rbt.Parameter_File>
/export/apps/rDock/src/rDock_2013.1_src/data/scripts/dock_solv.prm

>  <Rbt.Receptor>
prm/blind_docking_80.prm

>  <SCORE>
-16.6988

>  <SCORE.INTER>
-24.3248

>  <SCORE.INTER.CONST>
1

>  <SCORE.INTER.POLAR>
-1.66337

>  <SCORE.INTER.ROT>
10

>  <SCORE.INTER.SOLV>
5.53156

>  <SCORE.INTER.VDW>
-22.7825

>  <SCORE.INTER.norm>
-0.810825

>  <SCORE.INTRA>
5.79074

>  <SCORE.INTRA.DIHEDRAL>
9.58287

>  <SCORE.INTRA.DIHEDRAL.0>
18.0451

>  <SCORE.INTRA.POLAR>
0.196815

>  <SCORE.INTRA.POLAR.0>
-0.196815

>  <SCORE.INTRA.REPUL>
0

>  <SCORE.INTRA.REPUL.0>
0

>  <SCORE.INTRA.SOLV>
-0.159021

>  <SCORE.INTRA.SOLV.lig_0>
-14.7906

>  <SCORE.INTRA.VDW>
0.409643

>  <SCORE.INTRA.VDW.0>
-0.411701

>  <SCORE.INTRA.norm>
0.193025

>  <SCORE.RESTR>
1.83523

>  <SCORE.RESTR.CAVITY>
1.83523

>  <SCORE.RESTR.norm>
0.0611745

>  <SCORE.SYSTEM>
0

>  <SCORE.SYSTEM.CONST>
0

>  <SCORE.SYSTEM.DIHEDRAL>
0

>  <SCORE.SYSTEM.SOLV>
0

>  <SCORE.SYSTEM.norm>
0

>  <SCORE.heavy>
30

>  <SCORE.norm>
-0.556626

>  <RMSD>
16.472

$$$$
1uts_lig
 OpenBabel11021811413D
libRbt.so/2013.1/901 2013/11/27
 30 33  0  0  0  0  0  0  0  0999 V2000
   -9.7459   -8.2558   16.0666 N   0  0  0  0  0  0  0  0  0  0  0  0
  -10.9051   -8.9338   14.0090 C   0  0  0  0  0  0  0  0  0  0  0  0
  -12.5340   -5.6869   10.0984 C   0  0  0  0  0  0  0  0  0  0  0  0
  -10.9617   -7.4635   13.5845 C   0  0  0  0  0  0  0  0  0  0  0  0
  -11.8055   -7.3330   12.4309 O   0  0  0  0  0  0  0  0  0  0  0  0
   -9.6817   -9.1628   14.8984 C   0  0  0  0  0  0  0  0  0  0  0  0
  -12.0465   -4.3005    9.9187 N   0  0  0  0  0  0  0  0  0  0  0  0
  -11.2478   -3.8927   11.1047 C   0  0  0  0  0  0  0  0  0  0  0  0
  -10.2764   -2.7745   10.7154 C   0  0  0  0  0  0  0  0  0  0  0  0
   -9.2977   -2.5700   11.8069 N   0  0  0  0  0  0  0  0  0  0  0  0
   -8.4637   -1.3719   11.5022 C   0  0  0  0  0  0  0  0  0  0  0  0
   -8.4399   -3.7819   11.9349 C   0  0  0  0  0  0  0  0  0  0  0  0
   -7.4433   -1.1585   12.6320 C   0  0  0  0  0  0  0  0  0  0  0  0
   -7.4152   -3.5680   13.0635 C   0  0  0  0  0  0  0  0  0  0  0  0
   -6.5843   -2.3698   12.7597 N   0  0  0  0  0  0  0  0  0  0  0  0
   -9.1727   -8.4985    9.9934 C   0  0  0  0  0  0  0  0  0  0  0  0
   -6.4165   -8.5942    4.2212 N   0  0  0  0  0  0  0  0  0  0  0  0
   -9.5012   -7.7390    8.8451 C   0  0  0  0  0  0  0  0  0  0  0  0
  -10.5919   -6.8301    8.8858 C   0  0  0  0  0  0  0  0  0  0  0  0
  -11.3530   -6.6783   10.0773 C   0  0  0  0  0  0  0  0  0  0  0  0
  -11.0302   -7.4571   11.2290 C   0  0  0  0  0  0  0  0  0  0  0  0
   -9.9354   -8.3631   11.1833 C   0  0  0  0  0  0  0  0  0  0  0  0
   -5.7740   -9.7758    4.6556 C   0  0  0  0  0  0  0  0  0  0  0  0
   -6.1812  -10.1203    5.9645 C   0  0  0  0  0  0  0  0  0  0  0  0
   -7.8460   -8.9872    7.5483 C   0  0  0  0  0  0  0  0  0  0  0  0
   -8.7471   -7.8951    7.6736 C   0  0  0  0  0  0  0  0  0  0  0  0
   -8.8874   -6.9658    6.6063 C   0  0  0  0  0  0  0  0  0  0  0  0
   -8.1292   -7.1304    5.4156 C   0  0  0  0  0  0  0  0  0  0  0  0
   -7.2338   -8.2380    5.2872 C   0  0  0  0  0  0  0  0  0  0  0  0
   -7.0932   -9.1580    6.3422 C   0  0  0  0  0  0  0  0  0  0  0  0
  1  6  1  0  0  0  0
  2  4  1  0  0  0  0
  3  7  1  0  0  0  0
  4  5  1  0  0  0  0
  6  2  1  0  0  0  0
  7  8  1  0  0  0  0
  8  9  1  0  0  0  0
  9 10  1  0  0  0  0
 10 11  1  0  0  0  0
 10 12  1  0  0  0  0
 11 13  1  0  0  0  0
 13 15  1  0  0  0  0
 14 12  1  0  0  0  0
 15 14  1  0  0  0  0
 16 18  2  0  0  0  0
 16 22  1  0  0  0  0
 17 23  1  0  0  0  0
 17 29  1  0  0  0  0
 18 19  1  0  0  0  0
 18 26  1  0  0  0  0
 19 20  2  0  0  0  0
 20  3  1  0  0  0  0
 20 21  1  0  0  0  0
 21  5  1  0  0  0  0
 21 22  2  0  0  0  0
 23 24  2  0  0  0  0
 24 30  1  0  0  0  0
 25 26  2  0  0  0  0
 25 30  1  0  0  0  0
 26 27  1  0  0  0  0
 27 28  2  0  0  0  0
 28 29  1  0  0  0  0
 29 30  2  0  0  0  0
M  END
>  <CHROM.1>
40.61586943,160.91070779,-67.24596963,-90.89128987,57.13958573,156.00019821
-168.19849822,-172.94249422,12.72176123,-64.74554010,-144.11987991,-9.18550692
-6.40294659,10.17428980,2.23744386,1.11790850,0.44437649

>  <Name>
1uts_lig

>  <RI>
0

>  <Rbt.Current_Directory>
/home/itssahil/PROJECTS/Mol_Feturizer/New_Systems/rnas/1uts

>  <Rbt.Executable>
rbdock ($Id: //depot/dev/client3/rdock/2013.1/src/exe/rbdock.cxx#4 $)

>  <Rbt.Library>
libRbt.so (2013.1, Build901 2013/11/27)

>  <Rbt.Parameter_File>
/export/apps/rDock/src/rDock_2013.1_src/data/scripts/dock_solv.prm

>  <Rbt.Receptor>
prm/blind_docking_80.prm

>  <SCORE>
-30.4251

>  <SCORE.INTER>
-32.1656

>  <SCORE.INTER.CONST>
1

>  <SCORE.INTER.POLAR>
-2.26645

>  <SCORE.INTER.ROT>
10

>  <SCORE.INTER.SOLV>
8.76831

>  <SCORE.INTER.VDW>
-27.0783

>  <SCORE.INTER.norm>
-1.07219

>  <SCORE.INTRA>
1.12531

>  <SCORE.INTRA.DIHEDRAL>
-7.54099

>  <SCORE.INTRA.DIHEDRAL.0>
18.0451

>  <SCORE.INTRA.POLAR>
0.196815

>  <SCORE.INTRA.POLAR.0>
-0.196815

>  <SCORE.INTRA.REPUL>
0

>  <SCORE.INTRA.REPUL.0>
0

>  <SCORE.INTRA.SOLV>
-0.446217

>  <SCORE.INTRA.SOLV.lig_0>
-14.7906

>  <SCORE.INTRA.VDW>
4.44974

>  <SCORE.INTRA.VDW.0>
-0.411701

>  <SCORE.INTRA.norm>
0.0375103

>  <SCORE.RESTR>
0.615185

>  <SCORE.RESTR.CAVITY>
0.615185

>  <SCORE.RESTR.norm>
0.0205062

>  <SCORE.SYSTEM>
0

>  <SCORE.SYSTEM.CONST>
0

>  <SCORE.SYSTEM.DIHEDRAL>
0

>  <SCORE.SYSTEM.SOLV>
0

>  <SCORE.SYSTEM.norm>
0

>  <SCORE.heavy>
30

>  <SCORE.norm>
-1.01417

>  <RMSD>
16.506

$$$$
1uts_lig
 OpenBabel11021811413D
libRbt.so/2013.1/901 2013/11/27
 30 33  0  0  0  0  0  0  0  0999 V2000
  -12.4164   -1.2198    9.2176 N   0  0  0  0  0  0  0  0  0  0  0  0
  -12.9174   -3.2737   10.4697 C   0  0  0  0  0  0  0  0  0  0  0  0
   -8.9764   -6.0570   11.2811 C   0  0  0  0  0  0  0  0  0  0  0  0
  -12.4545   -4.4421    9.5947 C   0  0  0  0  0  0  0  0  0  0  0  0
  -11.6993   -5.3650   10.3933 O   0  0  0  0  0  0  0  0  0  0  0  0
  -11.9482   -2.1007   10.3113 C   0  0  0  0  0  0  0  0  0  0  0  0
   -8.7364   -7.1913   12.2019 N   0  0  0  0  0  0  0  0  0  0  0  0
   -8.0813   -6.6992   13.4428 C   0  0  0  0  0  0  0  0  0  0  0  0
   -7.3193   -7.8448   14.1154 C   0  0  0  0  0  0  0  0  0  0  0  0
   -6.8664   -7.4142   15.4571 N   0  0  0  0  0  0  0  0  0  0  0  0
   -5.8665   -8.3912   15.9763 C   0  0  0  0  0  0  0  0  0  0  0  0
   -8.0395   -7.3345   16.3727 C   0  0  0  0  0  0  0  0  0  0  0  0
   -5.3965   -7.9493   17.3716 C   0  0  0  0  0  0  0  0  0  0  0  0
   -7.5696   -6.8957   17.7713 C   0  0  0  0  0  0  0  0  0  0  0  0
   -6.5693   -7.8707   18.2881 N   0  0  0  0  0  0  0  0  0  0  0  0
  -10.6167   -7.5094    7.4845 C   0  0  0  0  0  0  0  0  0  0  0  0
   -6.3764  -11.1260    4.3497 N   0  0  0  0  0  0  0  0  0  0  0  0
   -9.2971   -7.8501    7.8662 C   0  0  0  0  0  0  0  0  0  0  0  0
   -8.7716   -7.3757    9.0976 C   0  0  0  0  0  0  0  0  0  0  0  0
   -9.5679   -6.5622    9.9496 C   0  0  0  0  0  0  0  0  0  0  0  0
  -10.8926   -6.2064    9.5551 C   0  0  0  0  0  0  0  0  0  0  0  0
  -11.4144   -6.6867    8.3228 C   0  0  0  0  0  0  0  0  0  0  0  0
   -7.4825  -11.7760    3.7568 C   0  0  0  0  0  0  0  0  0  0  0  0
   -8.6964  -11.3265    4.3243 C   0  0  0  0  0  0  0  0  0  0  0  0
   -9.1433   -9.5793    6.1440 C   0  0  0  0  0  0  0  0  0  0  0  0
   -8.5174   -8.6514    7.0203 C   0  0  0  0  0  0  0  0  0  0  0  0
   -7.1004   -8.5326    7.0322 C   0  0  0  0  0  0  0  0  0  0  0  0
   -6.3117   -9.3388    6.1676 C   0  0  0  0  0  0  0  0  0  0  0  0
   -6.9451  -10.2614    5.2773 C   0  0  0  0  0  0  0  0  0  0  0  0
   -8.3468  -10.3808    5.2645 C   0  0  0  0  0  0  0  0  0  0  0  0
  1  6  1  0  0  0  0
  2  4  1  0  0  0  0
  3  7  1  0  0  0  0
  4  5  1  0  0  0  0
  6  2  1  0  0  0  0
  7  8  1  0  0  0  0
  8  9  1  0  0  0  0
  9 10  1  0  0  0  0
 10 11  1  0  0  0  0
 10 12  1  0  0  0  0
 11 13  1  0  0  0  0
 13 15  1  0  0  0  0
 14 12  1  0  0  0  0
 15 14  1  0  0  0  0
 16 18  2  0  0  0  0
 16 22  1  0  0  0  0
 17 23  1  0  0  0  0
 17 29  1  0  0  0  0
 18 19  1  0  0  0  0
 18 26  1  0  0  0  0
 19 20  2  0  0  0  0
 20  3  1  0  0  0  0
 20 21  1  0  0  0  0
 21  5  1  0  0  0  0
 21 22  2  0  0  0  0
 23 24  2  0  0  0  0
 24 30  1  0  0  0  0
 25 26  2  0  0  0  0
 25 30  1  0  0  0  0
 26 27  1  0  0  0  0
 27 28  2  0  0  0  0
 28 29  1  0  0  0  0
 29 30  2  0  0  0  0
M  END
>  <CHROM.1>
-169.20698731,96.87278795,176.16515107,-160.78145172,91.05232198,-156.55891943
-170.39811634,-166.83132808,-27.77573585,-66.40847283,140.78589402,-8.82695543
-7.33889611,10.31967456,1.45129227,-0.83105153,1.24306032

>  <Name>
1uts_lig

>  <RI>
0

>  <Rbt.Current_Directory>
/home/itssahil/PROJECTS/Mol_Feturizer/New_Systems/rnas/1uts

>  <Rbt.Executable>
rbdock ($Id: //depot/dev/client3/rdock/2013.1/src/exe/rbdock.cxx#4 $)

>  <Rbt.Library>
libRbt.so (2013.1, Build901 2013/11/27)

>  <Rbt.Parameter_File>
/export/apps/rDock/src/rDock_2013.1_src/data/scripts/dock_solv.prm

>  <Rbt.Receptor>
prm/blind_docking_80.prm

>  <SCORE>
-16.7053

>  <SCORE.INTER>
-20.7489

>  <SCORE.INTER.CONST>
1

>  <SCORE.INTER.POLAR>
-1.27659

>  <SCORE.INTER.ROT>
10

>  <SCORE.INTER.SOLV>
6.96313

>  <SCORE.INTER.VDW>
-22.165

>  <SCORE.INTER.norm>
-0.691629

>  <SCORE.INTRA>
1.03218

>  <SCORE.INTRA.DIHEDRAL>
-3.81157

>  <SCORE.INTRA.DIHEDRAL.0>
18.0451

>  <SCORE.INTRA.POLAR>
0.196815

>  <SCORE.INTRA.POLAR.0>
-0.196815

>  <SCORE.INTRA.REPUL>
0

>  <SCORE.INTRA.REPUL.0>
0

>  <SCORE.INTRA.SOLV>
-0.562428

>  <SCORE.INTRA.SOLV.lig_0>
-14.7906

>  <SCORE.INTRA.VDW>
2.55001

>  <SCORE.INTRA.VDW.0>
-0.411701

>  <SCORE.INTRA.norm>
0.0344061

>  <SCORE.RESTR>
3.01139

>  <SCORE.RESTR.CAVITY>
3.01139

>  <SCORE.RESTR.norm>
0.10038

>  <SCORE.SYSTEM>
0

>  <SCORE.SYSTEM.CONST>
0

>  <SCORE.SYSTEM.DIHEDRAL>
0

>  <SCORE.SYSTEM.SOLV>
0

>  <SCORE.SYSTEM.norm>
0

>  <SCORE.heavy>
30

>  <SCORE.norm>
-0.556843

>  <RMSD>
16.512

$$$$
1uts_lig
 OpenBabel11021811413D
libRbt.so/2013.1/901 2013/11/27
 30 33  0  0  0  0  0  0  0  0999 V2000
  -13.3068   -1.0370    8.7645 N   0  0  0  0  0  0  0  0  0  0  0  0
  -11.4634   -2.6570    8.8861 C   0  0  0  0  0  0  0  0  0  0  0  0
  -10.7201   -7.2348   10.0306 C   0  0  0  0  0  0  0  0  0  0  0  0
  -10.2691   -3.1035    9.7342 C   0  0  0  0  0  0  0  0  0  0  0  0
   -9.9378   -4.4623    9.4121 O   0  0  0  0  0  0  0  0  0  0  0  0
  -12.0360   -1.3567    9.4532 C   0  0  0  0  0  0  0  0  0  0  0  0
  -10.0870   -8.4292    9.4268 N   0  0  0  0  0  0  0  0  0  0  0  0
   -9.4071   -8.0494    8.1601 C   0  0  0  0  0  0  0  0  0  0  0  0
   -9.0920   -9.3066    7.3443 C   0  0  0  0  0  0  0  0  0  0  0  0
   -8.1728   -8.9582    6.2377 N   0  0  0  0  0  0  0  0  0  0  0  0
   -8.1536  -10.0707    5.2448 C   0  0  0  0  0  0  0  0  0  0  0  0
   -6.8063   -8.7259    6.7850 C   0  0  0  0  0  0  0  0  0  0  0  0
   -7.1968   -9.7141    4.0957 C   0  0  0  0  0  0  0  0  0  0  0  0
   -5.8464   -8.3723    5.6347 C   0  0  0  0  0  0  0  0  0  0  0  0
   -5.8296   -9.4828    4.6423 N   0  0  0  0  0  0  0  0  0  0  0  0
   -7.8061   -5.0488   12.4689 C   0  0  0  0  0  0  0  0  0  0  0  0
   -5.6682   -8.6460   17.3063 N   0  0  0  0  0  0  0  0  0  0  0  0
   -8.1684   -6.3737   12.8104 C   0  0  0  0  0  0  0  0  0  0  0  0
   -9.1137   -7.0762   12.0163 C   0  0  0  0  0  0  0  0  0  0  0  0
   -9.6948   -6.4540   10.8775 C   0  0  0  0  0  0  0  0  0  0  0  0
   -9.3403   -5.1122   10.5443 C   0  0  0  0  0  0  0  0  0  0  0  0
   -8.3913   -4.4150   11.3411 C   0  0  0  0  0  0  0  0  0  0  0  0
   -4.4178   -8.0049   17.1537 C   0  0  0  0  0  0  0  0  0  0  0  0
   -4.4088   -7.1820   16.0046 C   0  0  0  0  0  0  0  0  0  0  0  0
   -6.2440   -6.6958   14.2842 C   0  0  0  0  0  0  0  0  0  0  0  0
   -7.5923   -6.9801   13.9355 C   0  0  0  0  0  0  0  0  0  0  0  0
   -8.3573   -7.8747   14.7335 C   0  0  0  0  0  0  0  0  0  0  0  0
   -7.7750   -8.4816   15.8790 C   0  0  0  0  0  0  0  0  0  0  0  0
   -6.4226   -8.1828   16.2351 C   0  0  0  0  0  0  0  0  0  0  0  0
   -5.6640   -7.2984   15.4465 C   0  0  0  0  0  0  0  0  0  0  0  0
  1  6  1  0  0  0  0
  2  4  1  0  0  0  0
  3  7  1  0  0  0  0
  4  5  1  0  0  0  0
  6  2  1  0  0  0  0
  7  8  1  0  0  0  0
  8  9  1  0  0  0  0
  9 10  1  0  0  0  0
 10 11  1  0  0  0  0
 10 12  1  0  0  0  0
 11 13  1  0  0  0  0
 13 15  1  0  0  0  0
 14 12  1  0  0  0  0
 15 14  1  0  0  0  0
 16 18  2  0  0  0  0
 16 22  1  0  0  0  0
 17 23  1  0  0  0  0
 17 29  1  0  0  0  0
 18 19  1  0  0  0  0
 18 26  1  0  0  0  0
 19 20  2  0  0  0  0
 20  3  1  0  0  0  0
 20 21  1  0  0  0  0
 21  5  1  0  0  0  0
 21 22  2  0  0  0  0
 23 24  2  0  0  0  0
 24 30  1  0  0  0  0
 25 26  2  0  0  0  0
 25 30  1  0  0  0  0
 26 27  1  0  0  0  0
 27 28  2  0  0  0  0
 28 29  1  0  0  0  0
 29 30  2  0  0  0  0
M  END
>  <CHROM.1>
-64.64702399,166.19988320,-84.61414364,-151.58746715,-171.45565304,-164.43340053
-168.11601047,-165.01788173,-34.91658925,-62.93871578,138.36642081,-8.31941504
-6.80816917,10.63570009,1.99418517,0.87748372,-1.87831232

>  <Name>
1uts_lig

>  <RI>
0

>  <Rbt.Current_Directory>
/home/itssahil/PROJECTS/Mol_Feturizer/New_Systems/rnas/1uts

>  <Rbt.Executable>
rbdock ($Id: //depot/dev/client3/rdock/2013.1/src/exe/rbdock.cxx#4 $)

>  <Rbt.Library>
libRbt.so (2013.1, Build901 2013/11/27)

>  <Rbt.Parameter_File>
/export/apps/rDock/src/rDock_2013.1_src/data/scripts/dock_solv.prm

>  <Rbt.Receptor>
prm/blind_docking_80.prm

>  <SCORE>
-32.8387

>  <SCORE.INTER>
-32.8632

>  <SCORE.INTER.CONST>
1

>  <SCORE.INTER.POLAR>
-2.01921

>  <SCORE.INTER.ROT>
10

>  <SCORE.INTER.SOLV>
9.72311

>  <SCORE.INTER.VDW>
-28.6858

>  <SCORE.INTER.norm>
-1.09544

>  <SCORE.INTRA>
-0.762044

>  <SCORE.INTRA.DIHEDRAL>
-6.4281

>  <SCORE.INTRA.DIHEDRAL.0>
18.0451

>  <SCORE.INTRA.POLAR>
0.196815

>  <SCORE.INTRA.POLAR.0>
-0.196815

>  <SCORE.INTRA.REPUL>
0

>  <SCORE.INTRA.REPUL.0>
0

>  <SCORE.INTRA.SOLV>
-0.642823

>  <SCORE.INTRA.SOLV.lig_0>
-14.7906

>  <SCORE.INTRA.VDW>
2.10424

>  <SCORE.INTRA.VDW.0>
-0.411701

>  <SCORE.INTRA.norm>
-0.0254015

>  <SCORE.RESTR>
0.786537

>  <SCORE.RESTR.CAVITY>
0.786537

>  <SCORE.RESTR.norm>
0.0262179

>  <SCORE.SYSTEM>
0

>  <SCORE.SYSTEM.CONST>
0

>  <SCORE.SYSTEM.DIHEDRAL>
0

>  <SCORE.SYSTEM.SOLV>
0

>  <SCORE.SYSTEM.norm>
0

>  <SCORE.heavy>
30

>  <SCORE.norm>
-1.09462

>  <RMSD>
16.559

$$$$
1uts_lig
 OpenBabel11021811413D
libRbt.so/2013.1/901 2013/11/27
 30 33  0  0  0  0  0  0  0  0999 V2000
  -11.9627   -1.4112    8.4149 N   0  0  0  0  0  0  0  0  0  0  0  0
  -11.6089   -3.1154   10.1492 C   0  0  0  0  0  0  0  0  0  0  0  0
   -9.0881   -7.2604   11.3428 C   0  0  0  0  0  0  0  0  0  0  0  0
  -11.1567   -4.5719   10.2883 C   0  0  0  0  0  0  0  0  0  0  0  0
   -9.7296   -4.6424   10.1530 O   0  0  0  0  0  0  0  0  0  0  0  0
  -11.1058   -2.5482    8.8206 C   0  0  0  0  0  0  0  0  0  0  0  0
   -8.5967   -6.0726   12.0775 N   0  0  0  0  0  0  0  0  0  0  0  0
   -9.6048   -5.6566   13.0884 C   0  0  0  0  0  0  0  0  0  0  0  0
   -9.7235   -6.7306   14.1737 C   0  0  0  0  0  0  0  0  0  0  0  0
   -8.4733   -6.7714   14.9652 N   0  0  0  0  0  0  0  0  0  0  0  0
   -7.7596   -8.0521   14.6926 C   0  0  0  0  0  0  0  0  0  0  0  0
   -8.8019   -6.6573   16.4143 C   0  0  0  0  0  0  0  0  0  0  0  0
   -6.4623   -8.0998   15.5160 C   0  0  0  0  0  0  0  0  0  0  0  0
   -7.5038   -6.7087   17.2400 C   0  0  0  0  0  0  0  0  0  0  0  0
   -6.7904   -7.9870   16.9655 N   0  0  0  0  0  0  0  0  0  0  0  0
   -8.9432   -6.5822    7.0145 C   0  0  0  0  0  0  0  0  0  0  0  0
   -6.8483  -11.9632    4.1407 N   0  0  0  0  0  0  0  0  0  0  0  0
   -8.6102   -7.8503    7.5476 C   0  0  0  0  0  0  0  0  0  0  0  0
   -8.6587   -8.0632    8.9512 C   0  0  0  0  0  0  0  0  0  0  0  0
   -9.0438   -7.0074    9.8223 C   0  0  0  0  0  0  0  0  0  0  0  0
   -9.3635   -5.7248    9.2839 C   0  0  0  0  0  0  0  0  0  0  0  0
   -9.3161   -5.5184    7.8779 C   0  0  0  0  0  0  0  0  0  0  0  0
   -5.4712  -11.6476    4.1831 C   0  0  0  0  0  0  0  0  0  0  0  0
   -5.2381  -10.5109    4.9899 C   0  0  0  0  0  0  0  0  0  0  0  0
   -6.8629   -9.0528    6.3308 C   0  0  0  0  0  0  0  0  0  0  0  0
   -8.2300   -8.8861    6.6826 C   0  0  0  0  0  0  0  0  0  0  0  0
   -9.2096   -9.7755    6.1615 C   0  0  0  0  0  0  0  0  0  0  0  0
   -8.8216  -10.8306    5.2921 C   0  0  0  0  0  0  0  0  0  0  0  0
   -7.4437  -11.0041    4.9511 C   0  0  0  0  0  0  0  0  0  0  0  0
   -6.4732  -10.1248    5.4653 C   0  0  0  0  0  0  0  0  0  0  0  0
  1  6  1  0  0  0  0
  2  4  1  0  0  0  0
  3  7  1  0  0  0  0
  4  5  1  0  0  0  0
  6  2  1  0  0  0  0
  7  8  1  0  0  0  0
  8  9  1  0  0  0  0
  9 10  1  0  0  0  0
 10 11  1  0  0  0  0
 10 12  1  0  0  0  0
 11 13  1  0  0  0  0
 13 15  1  0  0  0  0
 14 12  1  0  0  0  0
 15 14  1  0  0  0  0
 16 18  2  0  0  0  0
 16 22  1  0  0  0  0
 17 23  1  0  0  0  0
 17 29  1  0  0  0  0
 18 19  1  0  0  0  0
 18 26  1  0  0  0  0
 19 20  2  0  0  0  0
 20  3  1  0  0  0  0
 20 21  1  0  0  0  0
 21  5  1  0  0  0  0
 21 22  2  0  0  0  0
 23 24  2  0  0  0  0
 24 30  1  0  0  0  0
 25 26  2  0  0  0  0
 25 30  1  0  0  0  0
 26 27  1  0  0  0  0
 27 28  2  0  0  0  0
 28 29  1  0  0  0  0
 29 30  2  0  0  0  0
M  END
>  <CHROM.1>
82.39002341,55.65339160,126.62651345,-134.68986425,156.49872906,66.69766825
68.21809492,-111.46918471,89.34631386,141.46509671,-93.91990556,-8.60437678
-7.24592257,9.94229119,1.81659453,-0.98637200,1.38159416

>  <Name>
1uts_lig

>  <RI>
0

>  <Rbt.Current_Directory>
/home/itssahil/PROJECTS/Mol_Feturizer/New_Systems/rnas/1uts

>  <Rbt.Executable>
rbdock ($Id: //depot/dev/client3/rdock/2013.1/src/exe/rbdock.cxx#4 $)

>  <Rbt.Library>
libRbt.so (2013.1, Build901 2013/11/27)

>  <Rbt.Parameter_File>
/export/apps/rDock/src/rDock_2013.1_src/data/scripts/dock_solv.prm

>  <Rbt.Receptor>
prm/blind_docking_80.prm

>  <SCORE>
-22.5301

>  <SCORE.INTER>
-28.885

>  <SCORE.INTER.CONST>
1

>  <SCORE.INTER.POLAR>
-2.02338

>  <SCORE.INTER.ROT>
10

>  <SCORE.INTER.SOLV>
6.87448

>  <SCORE.INTER.VDW>
-25.0702

>  <SCORE.INTER.norm>
-0.962833

>  <SCORE.INTRA>
3.61677

>  <SCORE.INTRA.DIHEDRAL>
8.73441

>  <SCORE.INTRA.DIHEDRAL.0>
18.0451

>  <SCORE.INTRA.POLAR>
-0.301537

>  <SCORE.INTRA.POLAR.0>
-0.196815

>  <SCORE.INTRA.REPUL>
0

>  <SCORE.INTRA.REPUL.0>
0

>  <SCORE.INTRA.SOLV>
0.0718731

>  <SCORE.INTRA.SOLV.lig_0>
-14.7906

>  <SCORE.INTRA.VDW>
0.238851

>  <SCORE.INTRA.VDW.0>
-0.411701

>  <SCORE.INTRA.norm>
0.120559

>  <SCORE.RESTR>
2.73813

>  <SCORE.RESTR.CAVITY>
2.73813

>  <SCORE.RESTR.norm>
0.0912711

>  <SCORE.SYSTEM>
0

>  <SCORE.SYSTEM.CONST>
0

>  <SCORE.SYSTEM.DIHEDRAL>
0

>  <SCORE.SYSTEM.SOLV>
0

>  <SCORE.SYSTEM.norm>
0

>  <SCORE.heavy>
30

>  <SCORE.norm>
-0.751003

>  <RMSD>
16.563

$$$$
1uts_lig
 OpenBabel11021811413D
libRbt.so/2013.1/901 2013/11/27
 30 33  0  0  0  0  0  0  0  0999 V2000
  -10.6389   -0.9130   11.1028 N   0  0  0  0  0  0  0  0  0  0  0  0
  -10.9770   -2.5613    9.3122 C   0  0  0  0  0  0  0  0  0  0  0  0
   -9.8725   -6.8725    9.8447 C   0  0  0  0  0  0  0  0  0  0  0  0
  -10.0712   -3.4904    8.4989 C   0  0  0  0  0  0  0  0  0  0  0  0
  -10.8053   -4.6667    8.1285 O   0  0  0  0  0  0  0  0  0  0  0  0
  -10.1813   -1.3336    9.7592 C   0  0  0  0  0  0  0  0  0  0  0  0
   -8.7966   -6.3889   10.7394 N   0  0  0  0  0  0  0  0  0  0  0  0
   -9.1095   -6.7597   12.1450 C   0  0  0  0  0  0  0  0  0  0  0  0
   -7.9965   -6.2621   13.0719 C   0  0  0  0  0  0  0  0  0  0  0  0
   -7.7266   -7.2826   14.1095 N   0  0  0  0  0  0  0  0  0  0  0  0
   -8.9130   -7.3996   15.0054 C   0  0  0  0  0  0  0  0  0  0  0  0
   -6.5216   -6.8857   14.8913 C   0  0  0  0  0  0  0  0  0  0  0  0
   -8.6348   -8.4561   16.0869 C   0  0  0  0  0  0  0  0  0  0  0  0
   -6.2442   -7.9410   15.9771 C   0  0  0  0  0  0  0  0  0  0  0  0
   -7.4304   -8.0590   16.8700 N   0  0  0  0  0  0  0  0  0  0  0  0
   -8.6324   -6.5098    5.6560 C   0  0  0  0  0  0  0  0  0  0  0  0
   -4.8023  -11.4721    4.1609 N   0  0  0  0  0  0  0  0  0  0  0  0
   -8.1473   -7.5748    6.4520 C   0  0  0  0  0  0  0  0  0  0  0  0
   -8.5528   -7.6862    7.8087 C   0  0  0  0  0  0  0  0  0  0  0  0
   -9.4469   -6.7331    8.3691 C   0  0  0  0  0  0  0  0  0  0  0  0
   -9.9220   -5.6507    7.5692 C   0  0  0  0  0  0  0  0  0  0  0  0
   -9.5152   -5.5460    6.2109 C   0  0  0  0  0  0  0  0  0  0  0  0
   -5.7619  -12.5075    4.0919 C   0  0  0  0  0  0  0  0  0  0  0  0
   -7.0013  -12.0840    4.6230 C   0  0  0  0  0  0  0  0  0  0  0  0
   -7.7145   -9.8267    5.6028 C   0  0  0  0  0  0  0  0  0  0  0  0
   -7.2649   -8.5098    5.8930 C   0  0  0  0  0  0  0  0  0  0  0  0
   -5.9212   -8.1409    5.6090 C   0  0  0  0  0  0  0  0  0  0  0  0
   -5.0302   -9.0870    5.0338 C   0  0  0  0  0  0  0  0  0  0  0  0
   -5.4895  -10.4068    4.7302 C   0  0  0  0  0  0  0  0  0  0  0  0
   -6.8183  -10.7737    5.0109 C   0  0  0  0  0  0  0  0  0  0  0  0
  1  6  1  0  0  0  0
  2  4  1  0  0  0  0
  3  7  1  0  0  0  0
  4  5  1  0  0  0  0
  6  2  1  0  0  0  0
  7  8  1  0  0  0  0
  8  9  1  0  0  0  0
  9 10  1  0  0  0  0
 10 11  1  0  0  0  0
 10 12  1  0  0  0  0
 11 13  1  0  0  0  0
 13 15  1  0  0  0  0
 14 12  1  0  0  0  0
 15 14  1  0  0  0  0
 16 18  2  0  0  0  0
 16 22  1  0  0  0  0
 17 23  1  0  0  0  0
 17 29  1  0  0  0  0
 18 19  1  0  0  0  0
 18 26  1  0  0  0  0
 19 20  2  0  0  0  0
 20  3  1  0  0  0  0
 20 21  1  0  0  0  0
 21  5  1  0  0  0  0
 21 22  2  0  0  0  0
 23 24  2  0  0  0  0
 24 30  1  0  0  0  0
 25 26  2  0  0  0  0
 25 30  1  0  0  0  0
 26 27  1  0  0  0  0
 27 28  2  0  0  0  0
 28 29  1  0  0  0  0
 29 30  2  0  0  0  0
M  END
>  <CHROM.1>
-46.88244348,177.63046795,-169.50545978,-170.07044559,-144.76990238,179.91416005
-140.38308092,-66.85287639,-107.54473548,77.95827844,99.30110246,-8.17425905
-7.14765186,9.28673764,1.99744361,-1.04442361,1.51500091

>  <Name>
1uts_lig

>  <RI>
0

>  <Rbt.Current_Directory>
/home/itssahil/PROJECTS/Mol_Feturizer/New_Systems/rnas/1uts

>  <Rbt.Executable>
rbdock ($Id: //depot/dev/client3/rdock/2013.1/src/exe/rbdock.cxx#4 $)

>  <Rbt.Library>
libRbt.so (2013.1, Build901 2013/11/27)

>  <Rbt.Parameter_File>
/export/apps/rDock/src/rDock_2013.1_src/data/scripts/dock_solv.prm

>  <Rbt.Receptor>
prm/blind_docking_80.prm

>  <SCORE>
-31.7657

>  <SCORE.INTER>
-33.0996

>  <SCORE.INTER.CONST>
1

>  <SCORE.INTER.POLAR>
-1.43872

>  <SCORE.INTER.ROT>
10

>  <SCORE.INTER.SOLV>
9.6444

>  <SCORE.INTER.VDW>
-30.7522

>  <SCORE.INTER.norm>
-1.10332

>  <SCORE.INTRA>
0.0286292

>  <SCORE.INTRA.DIHEDRAL>
0.616518

>  <SCORE.INTRA.DIHEDRAL.0>
18.0451

>  <SCORE.INTRA.POLAR>
0.196815

>  <SCORE.INTRA.POLAR.0>
-0.196815

>  <SCORE.INTRA.REPUL>
0

>  <SCORE.INTRA.REPUL.0>
0

>  <SCORE.INTRA.SOLV>
-0.566477

>  <SCORE.INTRA.SOLV.lig_0>
-14.7906

>  <SCORE.INTRA.VDW>
-0.665563

>  <SCORE.INTRA.VDW.0>
-0.411701

>  <SCORE.INTRA.norm>
0.000954308

>  <SCORE.RESTR>
1.30528

>  <SCORE.RESTR.CAVITY>
1.30528

>  <SCORE.RESTR.norm>
0.0435092

>  <SCORE.SYSTEM>
0

>  <SCORE.SYSTEM.CONST>
0

>  <SCORE.SYSTEM.DIHEDRAL>
0

>  <SCORE.SYSTEM.SOLV>
0

>  <SCORE.SYSTEM.norm>
0

>  <SCORE.heavy>
30

>  <SCORE.norm>
-1.05886

>  <RMSD>
16.571

$$$$
1uts_lig
 OpenBabel11021811413D
libRbt.so/2013.1/901 2013/11/27
 30 33  0  0  0  0  0  0  0  0999 V2000
  -11.9079   -2.3243   11.0492 N   0  0  0  0  0  0  0  0  0  0  0  0
  -10.5152   -1.3324    9.2846 C   0  0  0  0  0  0  0  0  0  0  0  0
  -10.3387   -6.2389   10.6593 C   0  0  0  0  0  0  0  0  0  0  0  0
   -9.7888   -2.5999    8.8255 C   0  0  0  0  0  0  0  0  0  0  0  0
  -10.6040   -3.7460    9.1113 O   0  0  0  0  0  0  0  0  0  0  0  0
  -10.7742   -1.4082   10.7904 C   0  0  0  0  0  0  0  0  0  0  0  0
  -10.5951   -7.6501   11.0266 N   0  0  0  0  0  0  0  0  0  0  0  0
  -11.2947   -7.7073   12.3374 C   0  0  0  0  0  0  0  0  0  0  0  0
  -10.5004   -8.5835   13.3105 C   0  0  0  0  0  0  0  0  0  0  0  0
   -9.4846   -7.7571   14.0007 N   0  0  0  0  0  0  0  0  0  0  0  0
   -8.5107   -7.2356   12.9990 C   0  0  0  0  0  0  0  0  0  0  0  0
   -8.7855   -8.5856   15.0234 C   0  0  0  0  0  0  0  0  0  0  0  0
   -7.4518   -6.3799   13.7129 C   0  0  0  0  0  0  0  0  0  0  0  0
   -7.7223   -7.7307   15.7364 C   0  0  0  0  0  0  0  0  0  0  0  0
   -6.7514   -7.2083   14.7350 N   0  0  0  0  0  0  0  0  0  0  0  0
   -9.1540   -5.9882    6.4464 C   0  0  0  0  0  0  0  0  0  0  0  0
   -6.5856  -11.5886    4.5967 N   0  0  0  0  0  0  0  0  0  0  0  0
   -8.9936   -7.2000    7.1598 C   0  0  0  0  0  0  0  0  0  0  0  0
   -9.3791   -7.2743    8.5249 C   0  0  0  0  0  0  0  0  0  0  0  0
   -9.9285   -6.1361    9.1763 C   0  0  0  0  0  0  0  0  0  0  0  0
  -10.0743   -4.9104    8.4597 C   0  0  0  0  0  0  0  0  0  0  0  0
   -9.6895   -4.8428    7.0926 C   0  0  0  0  0  0  0  0  0  0  0  0
   -5.2876  -11.0392    4.4915 C   0  0  0  0  0  0  0  0  0  0  0  0
   -5.2477   -9.7315    5.0264 C   0  0  0  0  0  0  0  0  0  0  0  0
   -7.0823   -8.3190    6.1232 C   0  0  0  0  0  0  0  0  0  0  0  0
   -8.4497   -8.3177    6.5112 C   0  0  0  0  0  0  0  0  0  0  0  0
   -9.2627   -9.4540    6.2466 C   0  0  0  0  0  0  0  0  0  0  0  0
   -8.7079  -10.5899    5.5974 C   0  0  0  0  0  0  0  0  0  0  0  0
   -7.3283  -10.5936    5.2207 C   0  0  0  0  0  0  0  0  0  0  0  0
   -6.5226   -9.4700    5.4811 C   0  0  0  0  0  0  0  0  0  0  0  0
  1  6  1  0  0  0  0
  2  4  1  0  0  0  0
  3  7  1  0  0  0  0
  4  5  1  0  0  0  0
  6  2  1  0  0  0  0
  7  8  1  0  0  0  0
  8  9  1  0  0  0  0
  9 10  1  0  0  0  0
 10 11  1  0  0  0  0
 10 12  1  0  0  0  0
 11 13  1  0  0  0  0
 13 15  1  0  0  0  0
 14 12  1  0  0  0  0
 15 14  1  0  0  0  0
 16 18  2  0  0  0  0
 16 22  1  0  0  0  0
 17 23  1  0  0  0  0
 17 29  1  0  0  0  0
 18 19  1  0  0  0  0
 18 26  1  0  0  0  0
 19 20  2  0  0  0  0
 20  3  1  0  0  0  0
 20 21  1  0  0  0  0
 21  5  1  0  0  0  0
 21 22  2  0  0  0  0
 23 24  2  0  0  0  0
 24 30  1  0  0  0  0
 25 26  2  0  0  0  0
 25 30  1  0  0  0  0
 26 27  1  0  0  0  0
 27 28  2  0  0  0  0
 28 29  1  0  0  0  0
 29 30  2  0  0  0  0
M  END
>  <CHROM.1>
-69.43130634,60.13168176,-166.48174180,168.61020286,-76.48826171,-124.29029039
87.04152610,-63.43710195,68.62531140,-22.85916926,133.02986472,-8.94278127
-6.98792130,9.46599266,2.28377133,-1.11306965,1.69452985

>  <Name>
1uts_lig

>  <RI>
0

>  <Rbt.Current_Directory>
/home/itssahil/PROJECTS/Mol_Feturizer/New_Systems/rnas/1uts

>  <Rbt.Executable>
rbdock ($Id: //depot/dev/client3/rdock/2013.1/src/exe/rbdock.cxx#4 $)

>  <Rbt.Library>
libRbt.so (2013.1, Build901 2013/11/27)

>  <Rbt.Parameter_File>
/export/apps/rDock/src/rDock_2013.1_src/data/scripts/dock_solv.prm

>  <Rbt.Receptor>
prm/blind_docking_80.prm

>  <SCORE>
-26.8285

>  <SCORE.INTER>
-28.9209

>  <SCORE.INTER.CONST>
1

>  <SCORE.INTER.POLAR>
-1.63798

>  <SCORE.INTER.ROT>
10

>  <SCORE.INTER.SOLV>
6.89511

>  <SCORE.INTER.VDW>
-26.3857

>  <SCORE.INTER.norm>
-0.964029

>  <SCORE.INTRA>
0.528723

>  <SCORE.INTRA.DIHEDRAL>
-2.43062

>  <SCORE.INTRA.DIHEDRAL.0>
18.0451

>  <SCORE.INTRA.POLAR>
-0.479103

>  <SCORE.INTRA.POLAR.0>
-0.196815

>  <SCORE.INTRA.REPUL>
0

>  <SCORE.INTRA.REPUL.0>
0

>  <SCORE.INTRA.SOLV>
0.183545

>  <SCORE.INTRA.SOLV.lig_0>
-14.7906

>  <SCORE.INTRA.VDW>
3.28121

>  <SCORE.INTRA.VDW.0>
-0.411701

>  <SCORE.INTRA.norm>
0.0176241

>  <SCORE.RESTR>
1.56369

>  <SCORE.RESTR.CAVITY>
1.56369

>  <SCORE.RESTR.norm>
0.0521231

>  <SCORE.SYSTEM>
0

>  <SCORE.SYSTEM.CONST>
0

>  <SCORE.SYSTEM.DIHEDRAL>
0

>  <SCORE.SYSTEM.SOLV>
0

>  <SCORE.SYSTEM.norm>
0

>  <SCORE.heavy>
30

>  <SCORE.norm>
-0.894282

>  <RMSD>
16.706

$$$$
1uts_lig
 OpenBabel11021811413D
libRbt.so/2013.1/901 2013/11/27
 30 33  0  0  0  0  0  0  0  0999 V2000
  -14.3607   -6.2246   10.5958 N   0  0  0  0  0  0  0  0  0  0  0  0
  -12.1085   -5.3204   10.2120 C   0  0  0  0  0  0  0  0  0  0  0  0
   -9.4629   -7.1976   10.9079 C   0  0  0  0  0  0  0  0  0  0  0  0
  -11.2821   -4.3898    9.3197 C   0  0  0  0  0  0  0  0  0  0  0  0
   -9.8856   -4.6071    9.5693 O   0  0  0  0  0  0  0  0  0  0  0  0
  -13.5392   -5.4049    9.6768 C   0  0  0  0  0  0  0  0  0  0  0  0
   -8.5068   -6.4141   11.7229 N   0  0  0  0  0  0  0  0  0  0  0  0
   -8.2459   -7.1200   13.0053 C   0  0  0  0  0  0  0  0  0  0  0  0
   -7.3034   -6.2827   13.8748 C   0  0  0  0  0  0  0  0  0  0  0  0
   -6.4521   -7.1820   14.6856 N   0  0  0  0  0  0  0  0  0  0  0  0
   -7.3065   -7.9289   15.6531 C   0  0  0  0  0  0  0  0  0  0  0  0
   -5.4299   -6.3748   15.4099 C   0  0  0  0  0  0  0  0  0  0  0  0
   -6.4250   -8.8614   16.4998 C   0  0  0  0  0  0  0  0  0  0  0  0
   -4.5490   -7.3071   16.2610 C   0  0  0  0  0  0  0  0  0  0  0  0
   -5.4033   -8.0544   17.2253 N   0  0  0  0  0  0  0  0  0  0  0  0
   -8.6600   -6.6370    6.6352 C   0  0  0  0  0  0  0  0  0  0  0  0
   -6.6673  -12.1612    4.0325 N   0  0  0  0  0  0  0  0  0  0  0  0
   -8.4267   -7.8931    7.2443 C   0  0  0  0  0  0  0  0  0  0  0  0
   -8.6885   -8.0678    8.6293 C   0  0  0  0  0  0  0  0  0  0  0  0
   -9.1872   -6.9858    9.4055 C   0  0  0  0  0  0  0  0  0  0  0  0
   -9.4063   -5.7154    8.7929 C   0  0  0  0  0  0  0  0  0  0  0  0
   -9.1454   -5.5473    7.4053 C   0  0  0  0  0  0  0  0  0  0  0  0
   -7.9286  -12.5095    3.4981 C   0  0  0  0  0  0  0  0  0  0  0  0
   -8.9459  -11.6803    4.0227 C   0  0  0  0  0  0  0  0  0  0  0  0
   -8.8227   -9.7314    5.6811 C   0  0  0  0  0  0  0  0  0  0  0  0
   -7.9335   -8.9549    6.4729 C   0  0  0  0  0  0  0  0  0  0  0  0
   -6.5430   -9.2523    6.4756 C   0  0  0  0  0  0  0  0  0  0  0  0
   -6.0431  -10.3230    5.6861 C   0  0  0  0  0  0  0  0  0  0  0  0
   -6.9382  -11.0936    4.8799 C   0  0  0  0  0  0  0  0  0  0  0  0
   -8.3144  -10.8011    4.8763 C   0  0  0  0  0  0  0  0  0  0  0  0
  1  6  1  0  0  0  0
  2  4  1  0  0  0  0
  3  7  1  0  0  0  0
  4  5  1  0  0  0  0
  6  2  1  0  0  0  0
  7  8  1  0  0  0  0
  8  9  1  0  0  0  0
  9 10  1  0  0  0  0
 10 11  1  0  0  0  0
 10 12  1  0  0  0  0
 11 13  1  0  0  0  0
 13 15  1  0  0  0  0
 14 12  1  0  0  0  0
 15 14  1  0  0  0  0
 16 18  2  0  0  0  0
 16 22  1  0  0  0  0
 17 23  1  0  0  0  0
 17 29  1  0  0  0  0
 18 19  1  0  0  0  0
 18 26  1  0  0  0  0
 19 20  2  0  0  0  0
 20  3  1  0  0  0  0
 20 21  1  0  0  0  0
 21  5  1  0  0  0  0
 21 22  2  0  0  0  0
 23 24  2  0  0  0  0
 24 30  1  0  0  0  0
 25 26  2  0  0  0  0
 25 30  1  0  0  0  0
 26 27  1  0  0  0  0
 27 28  2  0  0  0  0
 28 29  1  0  0  0  0
 29 30  2  0  0  0  0
M  END
>  <CHROM.1>
-166.08663733,-163.29454604,-149.02889517,84.21314553,-175.87938210,-177.61950301
-147.59628371,-65.58401396,-82.01131360,111.99337389,-103.06422779,-8.42827589
-7.79653422,9.81554786,1.42907865,-0.62794403,1.18538493

>  <Name>
1uts_lig

>  <RI>
0

>  <Rbt.Current_Directory>
/home/itssahil/PROJECTS/Mol_Feturizer/New_Systems/rnas/1uts

>  <Rbt.Executable>
rbdock ($Id: //depot/dev/client3/rdock/2013.1/src/exe/rbdock.cxx#4 $)

>  <Rbt.Library>
libRbt.so (2013.1, Build901 2013/11/27)

>  <Rbt.Parameter_File>
/export/apps/rDock/src/rDock_2013.1_src/data/scripts/dock_solv.prm

>  <Rbt.Receptor>
prm/blind_docking_80.prm

>  <SCORE>
-24.4116

>  <SCORE.INTER>
-27.2349

>  <SCORE.INTER.CONST>
1

>  <SCORE.INTER.POLAR>
-2.14118

>  <SCORE.INTER.ROT>
10

>  <SCORE.INTER.SOLV>
7.2597

>  <SCORE.INTER.VDW>
-23.7059

>  <SCORE.INTER.norm>
-0.90783

>  <SCORE.INTRA>
0.479921

>  <SCORE.INTRA.DIHEDRAL>
1.0743

>  <SCORE.INTRA.DIHEDRAL.0>
18.0451

>  <SCORE.INTRA.POLAR>
0.196815

>  <SCORE.INTRA.POLAR.0>
-0.196815

>  <SCORE.INTRA.REPUL>
0

>  <SCORE.INTRA.REPUL.0>
0

>  <SCORE.INTRA.SOLV>
-0.489942

>  <SCORE.INTRA.SOLV.lig_0>
-14.7906

>  <SCORE.INTRA.VDW>
-0.481432

>  <SCORE.INTRA.VDW.0>
-0.411701

>  <SCORE.INTRA.norm>
0.0159974

>  <SCORE.RESTR>
2.34334

>  <SCORE.RESTR.CAVITY>
2.34334

>  <SCORE.RESTR.norm>
0.0781113

>  <SCORE.SYSTEM>
0

>  <SCORE.SYSTEM.CONST>
0

>  <SCORE.SYSTEM.DIHEDRAL>
0

>  <SCORE.SYSTEM.SOLV>
0

>  <SCORE.SYSTEM.norm>
0

>  <SCORE.heavy>
30

>  <SCORE.norm>
-0.813721

>  <RMSD>
16.743

$$$$
1uts_lig
 OpenBabel11021811413D
libRbt.so/2013.1/901 2013/11/27
 30 33  0  0  0  0  0  0  0  0999 V2000
  -10.0139   -0.9510    8.5866 N   0  0  0  0  0  0  0  0  0  0  0  0
  -11.7516   -2.5923    9.1555 C   0  0  0  0  0  0  0  0  0  0  0  0
  -10.0260   -7.6545    9.1787 C   0  0  0  0  0  0  0  0  0  0  0  0
  -11.9698   -3.9531    9.8232 C   0  0  0  0  0  0  0  0  0  0  0  0
  -10.9482   -4.8643    9.3920 O   0  0  0  0  0  0  0  0  0  0  0  0
  -10.3473   -2.0813    9.4826 C   0  0  0  0  0  0  0  0  0  0  0  0
   -9.2828   -7.0393    8.0557 N   0  0  0  0  0  0  0  0  0  0  0  0
   -8.7522   -8.1038    7.1633 C   0  0  0  0  0  0  0  0  0  0  0  0
   -8.2427   -7.4808    5.8603 C   0  0  0  0  0  0  0  0  0  0  0  0
   -7.5290   -8.5083    5.0692 N   0  0  0  0  0  0  0  0  0  0  0  0
   -8.4561   -9.6406    4.7822 C   0  0  0  0  0  0  0  0  0  0  0  0
   -6.3444   -8.9876    5.8359 C   0  0  0  0  0  0  0  0  0  0  0  0
   -7.7171  -10.7117    3.9638 C   0  0  0  0  0  0  0  0  0  0  0  0
   -5.6056  -10.0629    5.0189 C   0  0  0  0  0  0  0  0  0  0  0  0
   -6.5328  -11.1923    4.7307 N   0  0  0  0  0  0  0  0  0  0  0  0
   -9.5073   -5.3150   12.8492 C   0  0  0  0  0  0  0  0  0  0  0  0
   -6.4687   -8.8233   17.2874 N   0  0  0  0  0  0  0  0  0  0  0  0
   -9.0663   -6.6588   12.7936 C   0  0  0  0  0  0  0  0  0  0  0  0
   -9.2378   -7.4114   11.6012 C   0  0  0  0  0  0  0  0  0  0  0  0
   -9.8484   -6.8183   10.4622 C   0  0  0  0  0  0  0  0  0  0  0  0
  -10.3072   -5.4683   10.5258 C   0  0  0  0  0  0  0  0  0  0  0  0
  -10.1300   -4.7189   11.7210 C   0  0  0  0  0  0  0  0  0  0  0  0
   -5.2114   -8.2143   17.0730 C   0  0  0  0  0  0  0  0  0  0  0  0
   -5.2229   -7.4327   15.8954 C   0  0  0  0  0  0  0  0  0  0  0  0
   -7.1023   -6.9690   14.2170 C   0  0  0  0  0  0  0  0  0  0  0  0
   -8.4665   -7.2372   13.9211 C   0  0  0  0  0  0  0  0  0  0  0  0
   -9.2231   -8.0870   14.7741 C   0  0  0  0  0  0  0  0  0  0  0  0
   -8.6164   -8.6652   15.9219 C   0  0  0  0  0  0  0  0  0  0  0  0
   -7.2477   -8.3824   16.2245 C   0  0  0  0  0  0  0  0  0  0  0  0
   -6.4975   -7.5423   15.3814 C   0  0  0  0  0  0  0  0  0  0  0  0
  1  6  1  0  0  0  0
  2  4  1  0  0  0  0
  3  7  1  0  0  0  0
  4  5  1  0  0  0  0
  6  2  1  0  0  0  0
  7  8  1  0  0  0  0
  8  9  1  0  0  0  0
  9 10  1  0  0  0  0
 10 11  1  0  0  0  0
 10 12  1  0  0  0  0
 11 13  1  0  0  0  0
 13 15  1  0  0  0  0
 14 12  1  0  0  0  0
 15 14  1  0  0  0  0
 16 18  2  0  0  0  0
 16 22  1  0  0  0  0
 17 23  1  0  0  0  0
 17 29  1  0  0  0  0
 18 19  1  0  0  0  0
 18 26  1  0  0  0  0
 19 20  2  0  0  0  0
 20  3  1  0  0  0  0
 20 21  1  0  0  0  0
 21  5  1  0  0  0  0
 21 22  2  0  0  0  0
 23 24  2  0  0  0  0
 24 30  1  0  0  0  0
 25 26  2  0  0  0  0
 25 30  1  0  0  0  0
 26 27  1  0  0  0  0
 27 28  2  0  0  0  0
 28 29  1  0  0  0  0
 29 30  2  0  0  0  0
M  END
>  <CHROM.1>
-174.90079807,-56.70569216,145.71828731,127.56231869,166.22451069,168.23446658
171.29120030,58.74646280,-79.67543598,-118.88838718,145.54086809,-8.53833191
-7.02345626,10.34874160,1.65768863,0.97940089,-1.75332618

>  <Name>
1uts_lig

>  <RI>
0

>  <Rbt.Current_Directory>
/home/itssahil/PROJECTS/Mol_Feturizer/New_Systems/rnas/1uts

>  <Rbt.Executable>
rbdock ($Id: //depot/dev/client3/rdock/2013.1/src/exe/rbdock.cxx#4 $)

>  <Rbt.Library>
libRbt.so (2013.1, Build901 2013/11/27)

>  <Rbt.Parameter_File>
/export/apps/rDock/src/rDock_2013.1_src/data/scripts/dock_solv.prm

>  <Rbt.Receptor>
prm/blind_docking_80.prm

>  <SCORE>
-33.8975

>  <SCORE.INTER>
-38.3316

>  <SCORE.INTER.CONST>
1

>  <SCORE.INTER.POLAR>
-3.00183

>  <SCORE.INTER.ROT>
10

>  <SCORE.INTER.SOLV>
8.39397

>  <SCORE.INTER.VDW>
-28.6129

>  <SCORE.INTER.norm>
-1.27772

>  <SCORE.INTRA>
4.39251

>  <SCORE.INTRA.DIHEDRAL>
-0.606529

>  <SCORE.INTRA.DIHEDRAL.0>
18.0451

>  <SCORE.INTRA.POLAR>
0.196815

>  <SCORE.INTRA.POLAR.0>
-0.196815

>  <SCORE.INTRA.REPUL>
0

>  <SCORE.INTRA.REPUL.0>
0

>  <SCORE.INTRA.SOLV>
-0.351126

>  <SCORE.INTRA.SOLV.lig_0>
-14.7906

>  <SCORE.INTRA.VDW>
4.20217

>  <SCORE.INTRA.VDW.0>
-0.411701

>  <SCORE.INTRA.norm>
0.146417

>  <SCORE.RESTR>
0.0415309

>  <SCORE.RESTR.CAVITY>
0.0415309

>  <SCORE.RESTR.norm>
0.00138436

>  <SCORE.SYSTEM>
0

>  <SCORE.SYSTEM.CONST>
0

>  <SCORE.SYSTEM.DIHEDRAL>
0

>  <SCORE.SYSTEM.SOLV>
0

>  <SCORE.SYSTEM.norm>
0

>  <SCORE.heavy>
30

>  <SCORE.norm>
-1.12992

>  <RMSD>
16.823

$$$$
1uts_lig
 OpenBabel11021811413D
libRbt.so/2013.1/901 2013/11/27
 30 33  0  0  0  0  0  0  0  0999 V2000
  -11.0742   -0.8880   11.1714 N   0  0  0  0  0  0  0  0  0  0  0  0
  -12.0257   -2.3047    9.4036 C   0  0  0  0  0  0  0  0  0  0  0  0
   -9.1203   -6.4938   10.3579 C   0  0  0  0  0  0  0  0  0  0  0  0
  -11.4527   -3.3742    8.4692 C   0  0  0  0  0  0  0  0  0  0  0  0
  -10.4917   -4.1653    9.1837 O   0  0  0  0  0  0  0  0  0  0  0  0
  -10.9328   -1.2934    9.7547 C   0  0  0  0  0  0  0  0  0  0  0  0
   -8.5849   -5.2897   11.0328 N   0  0  0  0  0  0  0  0  0  0  0  0
   -8.9954   -5.2923   12.4620 C   0  0  0  0  0  0  0  0  0  0  0  0
   -8.2360   -6.3874   13.2168 C   0  0  0  0  0  0  0  0  0  0  0  0
   -9.1776   -7.1327   14.0822 N   0  0  0  0  0  0  0  0  0  0  0  0
   -8.4051   -7.9967   15.0207 C   0  0  0  0  0  0  0  0  0  0  0  0
  -10.0781   -7.9626   13.2330 C   0  0  0  0  0  0  0  0  0  0  0  0
   -9.3800   -8.7753   15.9188 C   0  0  0  0  0  0  0  0  0  0  0  0
  -11.0524   -8.7456   14.1314 C   0  0  0  0  0  0  0  0  0  0  0  0
  -10.2801   -9.6065   15.0700 N   0  0  0  0  0  0  0  0  0  0  0  0
   -9.3345   -5.8713    6.0242 C   0  0  0  0  0  0  0  0  0  0  0  0
   -6.3122  -10.8230    3.1581 N   0  0  0  0  0  0  0  0  0  0  0  0
   -8.6505   -6.9938    6.5489 C   0  0  0  0  0  0  0  0  0  0  0  0
   -8.5845   -7.1893    7.9542 C   0  0  0  0  0  0  0  0  0  0  0  0
   -9.2060   -6.2627    8.8357 C   0  0  0  0  0  0  0  0  0  0  0  0
   -9.8812   -5.1226    8.3051 C   0  0  0  0  0  0  0  0  0  0  0  0
   -9.9467   -4.9338    6.8973 C   0  0  0  0  0  0  0  0  0  0  0  0
   -6.6610  -11.9639    3.9159 C   0  0  0  0  0  0  0  0  0  0  0  0
   -7.3586  -11.5972    5.0892 C   0  0  0  0  0  0  0  0  0  0  0  0
   -8.0642   -9.2940    5.9618 C   0  0  0  0  0  0  0  0  0  0  0  0
   -8.0390   -7.9024    5.6736 C   0  0  0  0  0  0  0  0  0  0  0  0
   -7.3988   -7.4344    4.4932 C   0  0  0  0  0  0  0  0  0  0  0  0
   -6.7873   -8.3572    3.6021 C   0  0  0  0  0  0  0  0  0  0  0  0
   -6.8264   -9.7579    3.8877 C   0  0  0  0  0  0  0  0  0  0  0  0
   -7.4589  -10.2227    5.0554 C   0  0  0  0  0  0  0  0  0  0  0  0
  1  6  1  0  0  0  0
  2  4  1  0  0  0  0
  3  7  1  0  0  0  0
  4  5  1  0  0  0  0
  6  2  1  0  0  0  0
  7  8  1  0  0  0  0
  8  9  1  0  0  0  0
  9 10  1  0  0  0  0
 10 11  1  0  0  0  0
 10 12  1  0  0  0  0
 11 13  1  0  0  0  0
 13 15  1  0  0  0  0
 14 12  1  0  0  0  0
 15 14  1  0  0  0  0
 16 18  2  0  0  0  0
 16 22  1  0  0  0  0
 17 23  1  0  0  0  0
 17 29  1  0  0  0  0
 18 19  1  0  0  0  0
 18 26  1  0  0  0  0
 19 20  2  0  0  0  0
 20  3  1  0  0  0  0
 20 21  1  0  0  0  0
 21  5  1  0  0  0  0
 21 22  2  0  0  0  0
 23 24  2  0  0  0  0
 24 30  1  0  0  0  0
 25 26  2  0  0  0  0
 25 30  1  0  0  0  0
 26 27  1  0  0  0  0
 27 28  2  0  0  0  0
 28 29  1  0  0  0  0
 29 30  2  0  0  0  0
M  END
>  <CHROM.1>
-48.39254125,67.57771899,157.66812401,-176.48978318,-141.93203643,70.79626769
-134.85580853,-168.21730857,-142.34528028,126.31196089,-161.34771068,-9.05111921
-6.88787462,9.12911928,2.41917121,-1.19036899,1.98884976

>  <Name>
1uts_lig

>  <RI>
0

>  <Rbt.Current_Directory>
/home/itssahil/PROJECTS/Mol_Feturizer/New_Systems/rnas/1uts

>  <Rbt.Executable>
rbdock ($Id: //depot/dev/client3/rdock/2013.1/src/exe/rbdock.cxx#4 $)

>  <Rbt.Library>
libRbt.so (2013.1, Build901 2013/11/27)

>  <Rbt.Parameter_File>
/export/apps/rDock/src/rDock_2013.1_src/data/scripts/dock_solv.prm

>  <Rbt.Receptor>
prm/blind_docking_80.prm

>  <SCORE>
-24.5039

>  <SCORE.INTER>
-26.187

>  <SCORE.INTER.CONST>
1

>  <SCORE.INTER.POLAR>
-1.43157

>  <SCORE.INTER.ROT>
10

>  <SCORE.INTER.SOLV>
9.28182

>  <SCORE.INTER.VDW>
-26.0467

>  <SCORE.INTER.norm>
-0.872901

>  <SCORE.INTRA>
0.648526

>  <SCORE.INTRA.DIHEDRAL>
-4.14006

>  <SCORE.INTRA.DIHEDRAL.0>
18.0451

>  <SCORE.INTRA.POLAR>
-0.444364

>  <SCORE.INTRA.POLAR.0>
-0.196815

>  <SCORE.INTRA.REPUL>
0

>  <SCORE.INTRA.REPUL.0>
0

>  <SCORE.INTRA.SOLV>
-0.196577

>  <SCORE.INTRA.SOLV.lig_0>
-14.7906

>  <SCORE.INTRA.VDW>
4.32768

>  <SCORE.INTRA.VDW.0>
-0.411701

>  <SCORE.INTRA.norm>
0.0216175

>  <SCORE.RESTR>
1.0346

>  <SCORE.RESTR.CAVITY>
1.0346

>  <SCORE.RESTR.norm>
0.0344867

>  <SCORE.SYSTEM>
0

>  <SCORE.SYSTEM.CONST>
0

>  <SCORE.SYSTEM.DIHEDRAL>
0

>  <SCORE.SYSTEM.SOLV>
0

>  <SCORE.SYSTEM.norm>
0

>  <SCORE.heavy>
30

>  <SCORE.norm>
-0.816796

>  <RMSD>
16.853

$$$$
1uts_lig
 OpenBabel11021811413D
libRbt.so/2013.1/901 2013/11/27
 30 33  0  0  0  0  0  0  0  0999 V2000
  -12.3751   -1.4459   10.5391 N   0  0  0  0  0  0  0  0  0  0  0  0
  -10.6246   -3.1691   10.5981 C   0  0  0  0  0  0  0  0  0  0  0  0
   -9.2650   -7.3107   10.5614 C   0  0  0  0  0  0  0  0  0  0  0  0
   -9.7316   -4.0575    9.7272 C   0  0  0  0  0  0  0  0  0  0  0  0
  -10.5306   -5.0790    9.1126 O   0  0  0  0  0  0  0  0  0  0  0  0
  -11.4264   -2.2193    9.7064 C   0  0  0  0  0  0  0  0  0  0  0  0
  -10.6555   -7.7358   10.8402 N   0  0  0  0  0  0  0  0  0  0  0  0
  -10.6930   -8.5358   12.0931 C   0  0  0  0  0  0  0  0  0  0  0  0
  -10.6017   -7.6042   13.3052 C   0  0  0  0  0  0  0  0  0  0  0  0
   -9.1854   -7.4607   13.7106 N   0  0  0  0  0  0  0  0  0  0  0  0
   -8.9593   -8.2062   14.9822 C   0  0  0  0  0  0  0  0  0  0  0  0
   -8.8670   -6.0160   13.8910 C   0  0  0  0  0  0  0  0  0  0  0  0
   -7.4899   -8.0562   15.4085 C   0  0  0  0  0  0  0  0  0  0  0  0
   -7.3968   -5.8648   14.3215 C   0  0  0  0  0  0  0  0  0  0  0  0
   -7.1712   -6.6117   15.5903 N   0  0  0  0  0  0  0  0  0  0  0  0
   -8.6661   -6.7007    6.2621 C   0  0  0  0  0  0  0  0  0  0  0  0
   -4.8922  -11.3903    3.9681 N   0  0  0  0  0  0  0  0  0  0  0  0
   -8.0255   -7.7750    6.9244 C   0  0  0  0  0  0  0  0  0  0  0  0
   -8.2234   -7.9667    8.3178 C   0  0  0  0  0  0  0  0  0  0  0  0
   -9.0656   -7.0847    9.0490 C   0  0  0  0  0  0  0  0  0  0  0  0
   -9.6978   -5.9924    8.3824 C   0  0  0  0  0  0  0  0  0  0  0  0
   -9.4983   -5.8073    6.9868 C   0  0  0  0  0  0  0  0  0  0  0  0
   -5.8359  -12.4413    3.9204 C   0  0  0  0  0  0  0  0  0  0  0  0
   -7.0152  -12.0934    4.6174 C   0  0  0  0  0  0  0  0  0  0  0  0
   -7.6525   -9.9403    5.8512 C   0  0  0  0  0  0  0  0  0  0  0  0
   -7.1954   -8.6396    6.1971 C   0  0  0  0  0  0  0  0  0  0  0  0
   -5.8982   -8.2148    5.7983 C   0  0  0  0  0  0  0  0  0  0  0  0
   -5.0613   -9.0888    5.0531 C   0  0  0  0  0  0  0  0  0  0  0  0
   -5.5293  -10.3916    4.6947 C   0  0  0  0  0  0  0  0  0  0  0  0
   -6.8122  -10.8139    5.0889 C   0  0  0  0  0  0  0  0  0  0  0  0
  1  6  1  0  0  0  0
  2  4  1  0  0  0  0
  3  7  1  0  0  0  0
  4  5  1  0  0  0  0
  6  2  1  0  0  0  0
  7  8  1  0  0  0  0
  8  9  1  0  0  0  0
  9 10  1  0  0  0  0
 10 11  1  0  0  0  0
 10 12  1  0  0  0  0
 11 13  1  0  0  0  0
 13 15  1  0  0  0  0
 14 12  1  0  0  0  0
 15 14  1  0  0  0  0
 16 18  2  0  0  0  0
 16 22  1  0  0  0  0
 17 23  1  0  0  0  0
 17 29  1  0  0  0  0
 18 19  1  0  0  0  0
 18 26  1  0  0  0  0
 19 20  2  0  0  0  0
 20  3  1  0  0  0  0
 20 21  1  0  0  0  0
 21  5  1  0  0  0  0
 21 22  2  0  0  0  0
 23 24  2  0  0  0  0
 24 30  1  0  0  0  0
 25 26  2  0  0  0  0
 25 30  1  0  0  0  0
 26 27  1  0  0  0  0
 27 28  2  0  0  0  0
 28 29  1  0  0  0  0
 29 30  2  0  0  0  0
M  END
>  <CHROM.1>
-64.73954248,-76.30594445,153.68072391,-175.09768304,175.02547715,77.25652478
-92.70917648,-107.65474757,-104.48390760,-111.87387104,84.47287219,-8.54942451
-7.34628977,9.36739497,2.24966359,-0.99531827,1.62971872

>  <Name>
1uts_lig

>  <RI>
0

>  <Rbt.Current_Directory>
/home/itssahil/PROJECTS/Mol_Feturizer/New_Systems/rnas/1uts

>  <Rbt.Executable>
rbdock ($Id: //depot/dev/client3/rdock/2013.1/src/exe/rbdock.cxx#4 $)

>  <Rbt.Library>
libRbt.so (2013.1, Build901 2013/11/27)

>  <Rbt.Parameter_File>
/export/apps/rDock/src/rDock_2013.1_src/data/scripts/dock_solv.prm

>  <Rbt.Receptor>
prm/blind_docking_80.prm

>  <SCORE>
-26.6687

>  <SCORE.INTER>
-28.2408

>  <SCORE.INTER.CONST>
1

>  <SCORE.INTER.POLAR>
-1.66741

>  <SCORE.INTER.ROT>
10

>  <SCORE.INTER.SOLV>
8.04481

>  <SCORE.INTER.VDW>
-26.2174

>  <SCORE.INTER.norm>
-0.94136

>  <SCORE.INTRA>
0.395433

>  <SCORE.INTRA.DIHEDRAL>
1.70879

>  <SCORE.INTRA.DIHEDRAL.0>
18.0451

>  <SCORE.INTRA.POLAR>
0.196815

>  <SCORE.INTRA.POLAR.0>
-0.196815

>  <SCORE.INTRA.REPUL>
0

>  <SCORE.INTRA.REPUL.0>
0

>  <SCORE.INTRA.SOLV>
-0.256759

>  <SCORE.INTRA.SOLV.lig_0>
-14.7906

>  <SCORE.INTRA.VDW>
-0.999753

>  <SCORE.INTRA.VDW.0>
-0.411701

>  <SCORE.INTRA.norm>
0.0131811

>  <SCORE.RESTR>
1.17666

>  <SCORE.RESTR.CAVITY>
1.17666

>  <SCORE.RESTR.norm>
0.0392221

>  <SCORE.SYSTEM>
0

>  <SCORE.SYSTEM.CONST>
0

>  <SCORE.SYSTEM.DIHEDRAL>
0

>  <SCORE.SYSTEM.SOLV>
0

>  <SCORE.SYSTEM.norm>
0

>  <SCORE.heavy>
30

>  <SCORE.norm>
-0.888957

>  <RMSD>
16.887

$$$$
1uts_lig
 OpenBabel11021811413D
libRbt.so/2013.1/901 2013/11/27
 30 33  0  0  0  0  0  0  0  0999 V2000
  -12.0809   -1.4569    8.4108 N   0  0  0  0  0  0  0  0  0  0  0  0
  -12.7693   -3.7722    8.8608 C   0  0  0  0  0  0  0  0  0  0  0  0
   -9.3308   -4.0862    9.8041 C   0  0  0  0  0  0  0  0  0  0  0  0
  -13.1250   -4.7574    9.9781 C   0  0  0  0  0  0  0  0  0  0  0  0
  -11.9188   -5.2762   10.5573 O   0  0  0  0  0  0  0  0  0  0  0  0
  -12.2314   -2.4774    9.4726 C   0  0  0  0  0  0  0  0  0  0  0  0
   -9.2699   -4.2278   11.2766 N   0  0  0  0  0  0  0  0  0  0  0  0
   -8.1181   -5.0910   11.6496 C   0  0  0  0  0  0  0  0  0  0  0  0
   -8.5993   -6.5272   11.8763 C   0  0  0  0  0  0  0  0  0  0  0  0
   -8.8997   -6.7251   13.3121 N   0  0  0  0  0  0  0  0  0  0  0  0
   -7.6758   -7.2164   14.0081 C   0  0  0  0  0  0  0  0  0  0  0  0
  -10.0092   -7.7100   13.4535 C   0  0  0  0  0  0  0  0  0  0  0  0
   -7.9851   -7.4269   15.4991 C   0  0  0  0  0  0  0  0  0  0  0  0
  -10.3173   -7.9244   14.9464 C   0  0  0  0  0  0  0  0  0  0  0  0
   -9.0938   -8.4128   15.6412 N   0  0  0  0  0  0  0  0  0  0  0  0
  -10.8180   -7.7680    7.9475 C   0  0  0  0  0  0  0  0  0  0  0  0
   -6.7060   -9.9909    3.5824 N   0  0  0  0  0  0  0  0  0  0  0  0
   -9.5773   -7.2188    7.5445 C   0  0  0  0  0  0  0  0  0  0  0  0
   -9.1015   -6.0252    8.1499 C   0  0  0  0  0  0  0  0  0  0  0  0
   -9.8659   -5.3819    9.1617 C   0  0  0  0  0  0  0  0  0  0  0  0
  -11.1243   -5.9285    9.5550 C   0  0  0  0  0  0  0  0  0  0  0  0
  -11.5941   -7.1253    8.9477 C   0  0  0  0  0  0  0  0  0  0  0  0
   -7.1347  -11.2912    3.9332 C   0  0  0  0  0  0  0  0  0  0  0  0
   -7.9983  -11.2540    5.0515 C   0  0  0  0  0  0  0  0  0  0  0  0
   -8.8670   -9.2737    6.4255 C   0  0  0  0  0  0  0  0  0  0  0  0
   -8.8299   -7.8578    6.5452 C   0  0  0  0  0  0  0  0  0  0  0  0
   -8.0394   -7.0909    5.6458 C   0  0  0  0  0  0  0  0  0  0  0  0
   -7.2895   -7.7392    4.6275 C   0  0  0  0  0  0  0  0  0  0  0  0
   -7.3398   -9.1628    4.5009 C   0  0  0  0  0  0  0  0  0  0  0  0
   -8.1209   -9.9232    5.3902 C   0  0  0  0  0  0  0  0  0  0  0  0
  1  6  1  0  0  0  0
  2  4  1  0  0  0  0
  3  7  1  0  0  0  0
  4  5  1  0  0  0  0
  6  2  1  0  0  0  0
  7  8  1  0  0  0  0
  8  9  1  0  0  0  0
  9 10  1  0  0  0  0
 10 11  1  0  0  0  0
 10 12  1  0  0  0  0
 11 13  1  0  0  0  0
 13 15  1  0  0  0  0
 14 12  1  0  0  0  0
 15 14  1  0  0  0  0
 16 18  2  0  0  0  0
 16 22  1  0  0  0  0
 17 23  1  0  0  0  0
 17 29  1  0  0  0  0
 18 19  1  0  0  0  0
 18 26  1  0  0  0  0
 19 20  2  0  0  0  0
 20  3  1  0  0  0  0
 20 21  1  0  0  0  0
 21  5  1  0  0  0  0
 21 22  2  0  0  0  0
 23 24  2  0  0  0  0
 24 30  1  0  0  0  0
 25 26  2  0  0  0  0
 25 30  1  0  0  0  0
 26 27  1  0  0  0  0
 27 28  2  0  0  0  0
 28 29  1  0  0  0  0
 29 30  2  0  0  0  0
M  END
>  <CHROM.1>
179.26203378,-72.87037190,74.77678960,-58.59646633,-171.54209984,-97.14021926
-93.30518165,-90.66104507,-32.92879371,-125.25801287,112.95753041,-9.50312616
-6.77034673,9.34807697,1.99938448,-0.98037466,1.53778230

>  <Name>
1uts_lig

>  <RI>
0

>  <Rbt.Current_Directory>
/home/itssahil/PROJECTS/Mol_Feturizer/New_Systems/rnas/1uts

>  <Rbt.Executable>
rbdock ($Id: //depot/dev/client3/rdock/2013.1/src/exe/rbdock.cxx#4 $)

>  <Rbt.Library>
libRbt.so (2013.1, Build901 2013/11/27)

>  <Rbt.Parameter_File>
/export/apps/rDock/src/rDock_2013.1_src/data/scripts/dock_solv.prm

>  <Rbt.Receptor>
prm/blind_docking_80.prm

>  <SCORE>
-24.5172

>  <SCORE.INTER>
-22.8561

>  <SCORE.INTER.CONST>
1

>  <SCORE.INTER.POLAR>
-3.05497

>  <SCORE.INTER.ROT>
10

>  <SCORE.INTER.SOLV>
6.31269

>  <SCORE.INTER.VDW>
-17.4251

>  <SCORE.INTER.norm>
-0.761871

>  <SCORE.INTRA>
-2.40491

>  <SCORE.INTRA.DIHEDRAL>
-2.85199

>  <SCORE.INTRA.DIHEDRAL.0>
18.0451

>  <SCORE.INTRA.POLAR>
-0.407849

>  <SCORE.INTRA.POLAR.0>
-0.196815

>  <SCORE.INTRA.REPUL>
0

>  <SCORE.INTRA.REPUL.0>
0

>  <SCORE.INTRA.SOLV>
-0.0200747

>  <SCORE.INTRA.SOLV.lig_0>
-14.7906

>  <SCORE.INTRA.VDW>
0.417813

>  <SCORE.INTRA.VDW.0>
-0.411701

>  <SCORE.INTRA.norm>
-0.0801636

>  <SCORE.RESTR>
0.743886

>  <SCORE.RESTR.CAVITY>
0.743886

>  <SCORE.RESTR.norm>
0.0247962

>  <SCORE.SYSTEM>
0

>  <SCORE.SYSTEM.CONST>
0

>  <SCORE.SYSTEM.DIHEDRAL>
0

>  <SCORE.SYSTEM.SOLV>
0

>  <SCORE.SYSTEM.norm>
0

>  <SCORE.heavy>
30

>  <SCORE.norm>
-0.817239

>  <RMSD>
16.887

$$$$
1uts_lig
 OpenBabel11021811413D
libRbt.so/2013.1/901 2013/11/27
 30 33  0  0  0  0  0  0  0  0999 V2000
  -13.0400   -1.1791    8.8966 N   0  0  0  0  0  0  0  0  0  0  0  0
  -11.7057   -3.1118    9.6188 C   0  0  0  0  0  0  0  0  0  0  0  0
   -9.2268   -7.5773   11.0297 C   0  0  0  0  0  0  0  0  0  0  0  0
  -10.3848   -3.8446    9.3668 C   0  0  0  0  0  0  0  0  0  0  0  0
  -10.4901   -5.1937    9.8448 O   0  0  0  0  0  0  0  0  0  0  0  0
  -11.6733   -1.7470    8.9285 C   0  0  0  0  0  0  0  0  0  0  0  0
  -10.6397   -7.5596   11.4720 N   0  0  0  0  0  0  0  0  0  0  0  0
  -10.7167   -7.1003   12.8841 C   0  0  0  0  0  0  0  0  0  0  0  0
  -10.1376   -8.1738   13.8102 C   0  0  0  0  0  0  0  0  0  0  0  0
   -9.0334   -7.5935   14.6070 N   0  0  0  0  0  0  0  0  0  0  0  0
   -7.9058   -7.2362   13.6988 C   0  0  0  0  0  0  0  0  0  0  0  0
   -8.5862   -8.5841   15.6266 C   0  0  0  0  0  0  0  0  0  0  0  0
   -6.7554   -6.6366   14.5235 C   0  0  0  0  0  0  0  0  0  0  0  0
   -7.4317   -7.9861   16.4506 C   0  0  0  0  0  0  0  0  0  0  0  0
   -6.3068   -7.6274   15.5426 N   0  0  0  0  0  0  0  0  0  0  0  0
   -8.9232   -6.6773    6.7504 C   0  0  0  0  0  0  0  0  0  0  0  0
   -5.5652  -11.3158    3.8155 N   0  0  0  0  0  0  0  0  0  0  0  0
   -8.2864   -7.8235    7.2834 C   0  0  0  0  0  0  0  0  0  0  0  0
   -8.3884   -8.1090    8.6710 C   0  0  0  0  0  0  0  0  0  0  0  0
   -9.1308   -7.2489    9.5260 C   0  0  0  0  0  0  0  0  0  0  0  0
   -9.7585   -6.0848    8.9893 C   0  0  0  0  0  0  0  0  0  0  0  0
   -9.6555   -5.8058    7.5989 C   0  0  0  0  0  0  0  0  0  0  0  0
   -6.6341  -12.2147    3.5983 C   0  0  0  0  0  0  0  0  0  0  0  0
   -7.7770  -11.8279    4.3344 C   0  0  0  0  0  0  0  0  0  0  0  0
   -8.1656   -9.8268    5.8864 C   0  0  0  0  0  0  0  0  0  0  0  0
   -7.5550   -8.6661    6.4345 C   0  0  0  0  0  0  0  0  0  0  0  0
   -6.2042   -8.3576    6.1147 C   0  0  0  0  0  0  0  0  0  0  0  0
   -5.4668   -9.2075    5.2467 C   0  0  0  0  0  0  0  0  0  0  0  0
   -6.0881  -10.3670    4.6859 C   0  0  0  0  0  0  0  0  0  0  0  0
   -7.4243  -10.6741    5.0016 C   0  0  0  0  0  0  0  0  0  0  0  0
  1  6  1  0  0  0  0
  2  4  1  0  0  0  0
  3  7  1  0  0  0  0
  4  5  1  0  0  0  0
  6  2  1  0  0  0  0
  7  8  1  0  0  0  0
  8  9  1  0  0  0  0
  9 10  1  0  0  0  0
 10 11  1  0  0  0  0
 10 12  1  0  0  0  0
 11 13  1  0  0  0  0
 13 15  1  0  0  0  0
 14 12  1  0  0  0  0
 15 14  1  0  0  0  0
 16 18  2  0  0  0  0
 16 22  1  0  0  0  0
 17 23  1  0  0  0  0
 17 29  1  0  0  0  0
 18 19  1  0  0  0  0
 18 26  1  0  0  0  0
 19 20  2  0  0  0  0
 20  3  1  0  0  0  0
 20 21  1  0  0  0  0
 21  5  1  0  0  0  0
 21 22  2  0  0  0  0
 23 24  2  0  0  0  0
 24 30  1  0  0  0  0
 25 26  2  0  0  0  0
 25 30  1  0  0  0  0
 26 27  1  0  0  0  0
 27 28  2  0  0  0  0
 28 29  1  0  0  0  0
 29 30  2  0  0  0  0
M  END
>  <CHROM.1>
87.42178043,-171.62083131,-147.71091543,144.40700645,166.75342924,-70.04062714
122.83144504,-66.13510863,-95.79745220,-129.01379914,147.72629812,-8.70554363
-7.40596914,9.51307463,2.02513046,-0.95433093,1.51403948

>  <Name>
1uts_lig

>  <RI>
0

>  <Rbt.Current_Directory>
/home/itssahil/PROJECTS/Mol_Feturizer/New_Systems/rnas/1uts

>  <Rbt.Executable>
rbdock ($Id: //depot/dev/client3/rdock/2013.1/src/exe/rbdock.cxx#4 $)

>  <Rbt.Library>
libRbt.so (2013.1, Build901 2013/11/27)

>  <Rbt.Parameter_File>
/export/apps/rDock/src/rDock_2013.1_src/data/scripts/dock_solv.prm

>  <Rbt.Receptor>
prm/blind_docking_80.prm

>  <SCORE>
-25.103

>  <SCORE.INTER>
-30.0495

>  <SCORE.INTER.CONST>
1

>  <SCORE.INTER.POLAR>
-1.30421

>  <SCORE.INTER.ROT>
10

>  <SCORE.INTER.SOLV>
7.72974

>  <SCORE.INTER.VDW>
-28.5289

>  <SCORE.INTER.norm>
-1.00165

>  <SCORE.INTRA>
4.12501

>  <SCORE.INTRA.DIHEDRAL>
3.72963

>  <SCORE.INTRA.DIHEDRAL.0>
18.0451

>  <SCORE.INTRA.POLAR>
-0.371081

>  <SCORE.INTRA.POLAR.0>
-0.196815

>  <SCORE.INTRA.REPUL>
0

>  <SCORE.INTRA.REPUL.0>
0

>  <SCORE.INTRA.SOLV>
-0.29876

>  <SCORE.INTRA.SOLV.lig_0>
-14.7906

>  <SCORE.INTRA.VDW>
3.67125

>  <SCORE.INTRA.VDW.0>
-0.411701

>  <SCORE.INTRA.norm>
0.1375

>  <SCORE.RESTR>
0.821476

>  <SCORE.RESTR.CAVITY>
0.821476

>  <SCORE.RESTR.norm>
0.0273825

>  <SCORE.SYSTEM>
0

>  <SCORE.SYSTEM.CONST>
0

>  <SCORE.SYSTEM.DIHEDRAL>
0

>  <SCORE.SYSTEM.SOLV>
0

>  <SCORE.SYSTEM.norm>
0

>  <SCORE.heavy>
30

>  <SCORE.norm>
-0.836767

>  <RMSD>
16.888

$$$$
1uts_lig
 OpenBabel11021811413D
libRbt.so/2013.1/901 2013/11/27
 30 33  0  0  0  0  0  0  0  0999 V2000
  -10.1249   -1.0878    8.7663 N   0  0  0  0  0  0  0  0  0  0  0  0
  -11.3227   -3.2294    8.6398 C   0  0  0  0  0  0  0  0  0  0  0  0
   -9.8326   -8.1344    9.6514 C   0  0  0  0  0  0  0  0  0  0  0  0
  -10.2101   -4.1569    9.1368 C   0  0  0  0  0  0  0  0  0  0  0  0
  -10.7928   -5.3491    9.6835 O   0  0  0  0  0  0  0  0  0  0  0  0
  -11.2248   -1.8823    9.3582 C   0  0  0  0  0  0  0  0  0  0  0  0
   -9.4667   -7.5157    8.3570 N   0  0  0  0  0  0  0  0  0  0  0  0
   -9.5110   -8.5413    7.2813 C   0  0  0  0  0  0  0  0  0  0  0  0
   -9.5318   -7.8551    5.9122 C   0  0  0  0  0  0  0  0  0  0  0  0
   -8.3552   -8.2889    5.1259 N   0  0  0  0  0  0  0  0  0  0  0  0
   -7.4934   -7.1068    4.8366 C   0  0  0  0  0  0  0  0  0  0  0  0
   -8.8147   -8.9208    3.8568 C   0  0  0  0  0  0  0  0  0  0  0  0
   -6.2720   -7.5530    4.0165 C   0  0  0  0  0  0  0  0  0  0  0  0
   -7.5924   -9.3646    3.0331 C   0  0  0  0  0  0  0  0  0  0  0  0
   -6.7309   -8.1838    2.7465 N   0  0  0  0  0  0  0  0  0  0  0  0
   -8.9577   -5.4184   12.9789 C   0  0  0  0  0  0  0  0  0  0  0  0
   -5.3596   -8.3891   17.3850 N   0  0  0  0  0  0  0  0  0  0  0  0
   -8.4930   -6.7549   13.0102 C   0  0  0  0  0  0  0  0  0  0  0  0
   -8.7804   -7.6299   11.9289 C   0  0  0  0  0  0  0  0  0  0  0  0
   -9.5309   -7.1667   10.8135 C   0  0  0  0  0  0  0  0  0  0  0  0
  -10.0125   -5.8233   10.7914 C   0  0  0  0  0  0  0  0  0  0  0  0
   -9.7190   -4.9511   11.8752 C   0  0  0  0  0  0  0  0  0  0  0  0
   -4.1881   -7.6796   17.0358 C   0  0  0  0  0  0  0  0  0  0  0  0
   -4.3662   -6.9759   15.8231 C   0  0  0  0  0  0  0  0  0  0  0  0
   -6.4049   -6.7930   14.2822 C   0  0  0  0  0  0  0  0  0  0  0  0
   -7.7549   -7.2048   14.1140 C   0  0  0  0  0  0  0  0  0  0  0  0
   -8.3571   -8.0678   15.0705 C   0  0  0  0  0  0  0  0  0  0  0  0
   -7.6107   -8.5158   16.1938 C   0  0  0  0  0  0  0  0  0  0  0  0
   -6.2571   -8.0885   16.3675 C   0  0  0  0  0  0  0  0  0  0  0  0
   -5.6595   -7.2352   15.4220 C   0  0  0  0  0  0  0  0  0  0  0  0
  1  6  1  0  0  0  0
  2  4  1  0  0  0  0
  3  7  1  0  0  0  0
  4  5  1  0  0  0  0
  6  2  1  0  0  0  0
  7  8  1  0  0  0  0
  8  9  1  0  0  0  0
  9 10  1  0  0  0  0
 10 11  1  0  0  0  0
 10 12  1  0  0  0  0
 11 13  1  0  0  0  0
 13 15  1  0  0  0  0
 14 12  1  0  0  0  0
 15 14  1  0  0  0  0
 16 18  2  0  0  0  0
 16 22  1  0  0  0  0
 17 23  1  0  0  0  0
 17 29  1  0  0  0  0
 18 19  1  0  0  0  0
 18 26  1  0  0  0  0
 19 20  2  0  0  0  0
 20  3  1  0  0  0  0
 20 21  1  0  0  0  0
 21  5  1  0  0  0  0
 21 22  2  0  0  0  0
 23 24  2  0  0  0  0
 24 30  1  0  0  0  0
 25 26  2  0  0  0  0
 25 30  1  0  0  0  0
 26 27  1  0  0  0  0
 27 28  2  0  0  0  0
 28 29  1  0  0  0  0
 29 30  2  0  0  0  0
M  END
>  <CHROM.1>
154.80092159,121.73389508,169.05175955,-145.62979339,77.25247134,163.92601018
120.48531678,-117.48886125,-74.13503615,-129.59598943,-125.95580364,-8.33276324
-6.75103860,10.22475824,1.87511709,0.90190625,-1.80236358

>  <Name>
1uts_lig

>  <RI>
0

>  <Rbt.Current_Directory>
/home/itssahil/PROJECTS/Mol_Feturizer/New_Systems/rnas/1uts

>  <Rbt.Executable>
rbdock ($Id: //depot/dev/client3/rdock/2013.1/src/exe/rbdock.cxx#4 $)

>  <Rbt.Library>
libRbt.so (2013.1, Build901 2013/11/27)

>  <Rbt.Parameter_File>
/export/apps/rDock/src/rDock_2013.1_src/data/scripts/dock_solv.prm

>  <Rbt.Receptor>
prm/blind_docking_80.prm

>  <SCORE>
-27.3437

>  <SCORE.INTER>
-34.9572

>  <SCORE.INTER.CONST>
1

>  <SCORE.INTER.POLAR>
-2.92072

>  <SCORE.INTER.ROT>
10

>  <SCORE.INTER.SOLV>
9.81139

>  <SCORE.INTER.VDW>
-27.1062

>  <SCORE.INTER.norm>
-1.16524

>  <SCORE.INTRA>
5.55272

>  <SCORE.INTRA.DIHEDRAL>
12.6075

>  <SCORE.INTRA.DIHEDRAL.0>
18.0451

>  <SCORE.INTRA.POLAR>
-0.0398983

>  <SCORE.INTRA.POLAR.0>
-0.196815

>  <SCORE.INTRA.REPUL>
0

>  <SCORE.INTRA.REPUL.0>
0

>  <SCORE.INTRA.SOLV>
-0.194973

>  <SCORE.INTRA.SOLV.lig_0>
-14.7906

>  <SCORE.INTRA.VDW>
-0.517873

>  <SCORE.INTRA.VDW.0>
-0.411701

>  <SCORE.INTRA.norm>
0.185091

>  <SCORE.RESTR>
2.06069

>  <SCORE.RESTR.CAVITY>
2.06069

>  <SCORE.RESTR.norm>
0.0686898

>  <SCORE.SYSTEM>
0

>  <SCORE.SYSTEM.CONST>
0

>  <SCORE.SYSTEM.DIHEDRAL>
0

>  <SCORE.SYSTEM.SOLV>
0

>  <SCORE.SYSTEM.norm>
0

>  <SCORE.heavy>
30

>  <SCORE.norm>
-0.911458

>  <RMSD>
16.892

$$$$
1uts_lig
 OpenBabel11021811413D
libRbt.so/2013.1/901 2013/11/27
 30 33  0  0  0  0  0  0  0  0999 V2000
   -6.6593  -11.5454    4.5417 N   0  0  0  0  0  0  0  0  0  0  0  0
   -6.4794   -9.3143    5.5552 C   0  0  0  0  0  0  0  0  0  0  0  0
  -10.2871   -5.9097    6.8928 C   0  0  0  0  0  0  0  0  0  0  0  0
   -7.0038   -7.8769    5.4905 C   0  0  0  0  0  0  0  0  0  0  0  0
   -8.4169   -7.8739    5.7414 O   0  0  0  0  0  0  0  0  0  0  0  0
   -7.1046  -10.1382    4.4280 C   0  0  0  0  0  0  0  0  0  0  0  0
   -9.8390   -4.5519    7.2772 N   0  0  0  0  0  0  0  0  0  0  0  0
  -10.3991   -4.1978    8.6083 C   0  0  0  0  0  0  0  0  0  0  0  0
   -9.8194   -2.8590    9.0744 C   0  0  0  0  0  0  0  0  0  0  0  0
   -9.7833   -2.8263   10.5538 N   0  0  0  0  0  0  0  0  0  0  0  0
   -9.1370   -1.5595   11.0026 C   0  0  0  0  0  0  0  0  0  0  0  0
   -9.0217   -4.0049   11.0557 C   0  0  0  0  0  0  0  0  0  0  0  0
   -9.0942   -1.5237   12.5389 C   0  0  0  0  0  0  0  0  0  0  0  0
   -8.9749   -3.9681   12.5939 C   0  0  0  0  0  0  0  0  0  0  0  0
   -8.3316   -2.7016   13.0414 N   0  0  0  0  0  0  0  0  0  0  0  0
   -8.2675   -8.9141    9.3646 C   0  0  0  0  0  0  0  0  0  0  0  0
   -9.8382   -7.9446   15.5403 N   0  0  0  0  0  0  0  0  0  0  0  0
   -9.1452   -7.9765    9.9594 C   0  0  0  0  0  0  0  0  0  0  0  0
   -9.7960   -7.0053    9.1527 C   0  0  0  0  0  0  0  0  0  0  0  0
   -9.5712   -6.9738    7.7491 C   0  0  0  0  0  0  0  0  0  0  0  0
   -8.6731   -7.9098    7.1536 C   0  0  0  0  0  0  0  0  0  0  0  0
   -8.0268   -8.8816    7.9656 C   0  0  0  0  0  0  0  0  0  0  0  0
   -8.7012   -7.1655   15.8533 C   0  0  0  0  0  0  0  0  0  0  0  0
   -7.9852   -6.8239   14.6836 C   0  0  0  0  0  0  0  0  0  0  0  0
   -8.4532   -7.3605   12.2224 C   0  0  0  0  0  0  0  0  0  0  0  0
   -9.3608   -8.0128   11.3443 C   0  0  0  0  0  0  0  0  0  0  0  0
  -10.4909   -8.6958   11.8722 C   0  0  0  0  0  0  0  0  0  0  0  0
  -10.7133   -8.7240   13.2755 C   0  0  0  0  0  0  0  0  0  0  0  0
   -9.8060   -8.0551   14.1554 C   0  0  0  0  0  0  0  0  0  0  0  0
   -8.6871   -7.3793   13.6350 C   0  0  0  0  0  0  0  0  0  0  0  0
  1  6  1  0  0  0  0
  2  4  1  0  0  0  0
  3  7  1  0  0  0  0
  4  5  1  0  0  0  0
  6  2  1  0  0  0  0
  7  8  1  0  0  0  0
  8  9  1  0  0  0  0
  9 10  1  0  0  0  0
 10 11  1  0  0  0  0
 10 12  1  0  0  0  0
 11 13  1  0  0  0  0
 13 15  1  0  0  0  0
 14 12  1  0  0  0  0
 15 14  1  0  0  0  0
 16 18  2  0  0  0  0
 16 22  1  0  0  0  0
 17 23  1  0  0  0  0
 17 29  1  0  0  0  0
 18 19  1  0  0  0  0
 18 26  1  0  0  0  0
 19 20  2  0  0  0  0
 20  3  1  0  0  0  0
 20 21  1  0  0  0  0
 21  5  1  0  0  0  0
 21 22  2  0  0  0  0
 23 24  2  0  0  0  0
 24 30  1  0  0  0  0
 25 26  2  0  0  0  0
 25 30  1  0  0  0  0
 26 27  1  0  0  0  0
 27 28  2  0  0  0  0
 28 29  1  0  0  0  0
 29 30  2  0  0  0  0
M  END
>  <CHROM.1>
-177.91683415,64.46112281,-71.83804256,82.25052644,-176.63096805,174.03117247
-151.27717340,176.34605900,83.97332182,63.96286911,129.82519608,-8.90408331
-6.57280280,9.98288901,-0.42290418,-1.37890689,2.22988425

>  <Name>
1uts_lig

>  <RI>
0

>  <Rbt.Current_Directory>
/home/itssahil/PROJECTS/Mol_Feturizer/New_Systems/rnas/1uts

>  <Rbt.Executable>
rbdock ($Id: //depot/dev/client3/rdock/2013.1/src/exe/rbdock.cxx#4 $)

>  <Rbt.Library>
libRbt.so (2013.1, Build901 2013/11/27)

>  <Rbt.Parameter_File>
/export/apps/rDock/src/rDock_2013.1_src/data/scripts/dock_solv.prm

>  <Rbt.Receptor>
prm/blind_docking_80.prm

>  <SCORE>
-27.0142

>  <SCORE.INTER>
-29.3169

>  <SCORE.INTER.CONST>
1

>  <SCORE.INTER.POLAR>
-1.28903

>  <SCORE.INTER.ROT>
10

>  <SCORE.INTER.SOLV>
6.13645

>  <SCORE.INTER.VDW>
-27.56

>  <SCORE.INTER.norm>
-0.977229

>  <SCORE.INTRA>
0.968878

>  <SCORE.INTRA.DIHEDRAL>
-4.39636

>  <SCORE.INTRA.DIHEDRAL.0>
18.0451

>  <SCORE.INTRA.POLAR>
0.196815

>  <SCORE.INTRA.POLAR.0>
-0.196815

>  <SCORE.INTRA.REPUL>
0

>  <SCORE.INTRA.REPUL.0>
0

>  <SCORE.INTRA.SOLV>
-0.457813

>  <SCORE.INTRA.SOLV.lig_0>
-14.7906

>  <SCORE.INTRA.VDW>
2.72679

>  <SCORE.INTRA.VDW.0>
-0.411701

>  <SCORE.INTRA.norm>
0.0322959

>  <SCORE.RESTR>
1.33383

>  <SCORE.RESTR.CAVITY>
1.33383

>  <SCORE.RESTR.norm>
0.0444612

>  <SCORE.SYSTEM>
0

>  <SCORE.SYSTEM.CONST>
0

>  <SCORE.SYSTEM.DIHEDRAL>
0

>  <SCORE.SYSTEM.SOLV>
0

>  <SCORE.SYSTEM.norm>
0

>  <SCORE.heavy>
30

>  <SCORE.norm>
-0.900472

>  <RMSD>
16.936

$$$$
1uts_lig
 OpenBabel11021811413D
libRbt.so/2013.1/901 2013/11/27
 30 33  0  0  0  0  0  0  0  0999 V2000
   -6.9505   -8.4027    1.5369 N   0  0  0  0  0  0  0  0  0  0  0  0
   -7.0728   -9.4389    3.7615 C   0  0  0  0  0  0  0  0  0  0  0  0
   -9.3702   -9.6142    8.6063 C   0  0  0  0  0  0  0  0  0  0  0  0
   -6.8534   -9.1638    5.2519 C   0  0  0  0  0  0  0  0  0  0  0  0
   -8.0630   -9.4454    5.9712 O   0  0  0  0  0  0  0  0  0  0  0  0
   -7.0388   -8.1199    2.9873 C   0  0  0  0  0  0  0  0  0  0  0  0
   -8.5630   -9.5816    9.8470 N   0  0  0  0  0  0  0  0  0  0  0  0
   -8.9080   -8.3702   10.6373 C   0  0  0  0  0  0  0  0  0  0  0  0
  -10.4299   -8.2389   10.7461 C   0  0  0  0  0  0  0  0  0  0  0  0
  -10.8072   -8.0414   12.1637 N   0  0  0  0  0  0  0  0  0  0  0  0
  -10.0637   -6.8710   12.7126 C   0  0  0  0  0  0  0  0  0  0  0  0
  -10.4828   -9.2730   12.9376 C   0  0  0  0  0  0  0  0  0  0  0  0
  -10.4502   -6.6651   14.1862 C   0  0  0  0  0  0  0  0  0  0  0  0
  -10.8659   -9.0666   14.4141 C   0  0  0  0  0  0  0  0  0  0  0  0
  -10.1248   -7.8961   14.9609 N   0  0  0  0  0  0  0  0  0  0  0  0
   -8.9848   -5.8185    6.4479 C   0  0  0  0  0  0  0  0  0  0  0  0
  -11.5097   -1.0690    9.9763 N   0  0  0  0  0  0  0  0  0  0  0  0
   -9.6359   -5.8599    7.7039 C   0  0  0  0  0  0  0  0  0  0  0  0
   -9.7578   -7.0933    8.3978 C   0  0  0  0  0  0  0  0  0  0  0  0
   -9.2251   -8.2861    7.8362 C   0  0  0  0  0  0  0  0  0  0  0  0
   -8.5833   -8.2449    6.5621 C   0  0  0  0  0  0  0  0  0  0  0  0
   -8.4615   -7.0068    5.8735 C   0  0  0  0  0  0  0  0  0  0  0  0
  -10.3489   -0.7636   10.7227 C   0  0  0  0  0  0  0  0  0  0  0  0
   -9.3645   -1.7643   10.5577 C   0  0  0  0  0  0  0  0  0  0  0  0
   -9.3797   -3.9066    9.1526 C   0  0  0  0  0  0  0  0  0  0  0  0
  -10.1599   -4.6800    8.2506 C   0  0  0  0  0  0  0  0  0  0  0  0
  -11.4693   -4.2513    7.8986 C   0  0  0  0  0  0  0  0  0  0  0  0
  -11.9958   -3.0503    8.4463 C   0  0  0  0  0  0  0  0  0  0  0  0
  -11.2031   -2.2672    9.3427 C   0  0  0  0  0  0  0  0  0  0  0  0
   -9.9077   -2.6901    9.6925 C   0  0  0  0  0  0  0  0  0  0  0  0
  1  6  1  0  0  0  0
  2  4  1  0  0  0  0
  3  7  1  0  0  0  0
  4  5  1  0  0  0  0
  6  2  1  0  0  0  0
  7  8  1  0  0  0  0
  8  9  1  0  0  0  0
  9 10  1  0  0  0  0
 10 11  1  0  0  0  0
 10 12  1  0  0  0  0
 11 13  1  0  0  0  0
 13 15  1  0  0  0  0
 14 12  1  0  0  0  0
 15 14  1  0  0  0  0
 16 18  2  0  0  0  0
 16 22  1  0  0  0  0
 17 23  1  0  0  0  0
 17 29  1  0  0  0  0
 18 19  1  0  0  0  0
 18 26  1  0  0  0  0
 19 20  2  0  0  0  0
 20  3  1  0  0  0  0
 20 21  1  0  0  0  0
 21  5  1  0  0  0  0
 21 22  2  0  0  0  0
 23 24  2  0  0  0  0
 24 30  1  0  0  0  0
 25 26  2  0  0  0  0
 25 30  1  0  0  0  0
 26 27  1  0  0  0  0
 27 28  2  0  0  0  0
 28 29  1  0  0  0  0
 29 30  2  0  0  0  0
M  END
>  <CHROM.1>
61.79992802,111.83231568,52.95457244,-115.69688849,167.62007668,47.88509230
129.48334347,54.89646537,-93.64968311,-67.26716475,-144.23025941,-9.49904389
-6.61831135,8.92575349,0.33231941,1.21400658,-0.71070977

>  <Name>
1uts_lig

>  <RI>
0

>  <Rbt.Current_Directory>
/home/itssahil/PROJECTS/Mol_Feturizer/New_Systems/rnas/1uts

>  <Rbt.Executable>
rbdock ($Id: //depot/dev/client3/rdock/2013.1/src/exe/rbdock.cxx#4 $)

>  <Rbt.Library>
libRbt.so (2013.1, Build901 2013/11/27)

>  <Rbt.Parameter_File>
/export/apps/rDock/src/rDock_2013.1_src/data/scripts/dock_solv.prm

>  <Rbt.Receptor>
prm/blind_docking_60.prm

>  <SCORE>
-6.21472

>  <SCORE.INTER>
-28.4182

>  <SCORE.INTER.CONST>
1

>  <SCORE.INTER.POLAR>
-2.13028

>  <SCORE.INTER.ROT>
10

>  <SCORE.INTER.SOLV>
10.8966

>  <SCORE.INTER.VDW>
-25.7434

>  <SCORE.INTER.norm>
-0.947275

>  <SCORE.INTRA>
18.2665

>  <SCORE.INTRA.DIHEDRAL>
7.77629

>  <SCORE.INTRA.DIHEDRAL.0>
18.0451

>  <SCORE.INTRA.POLAR>
0.196815

>  <SCORE.INTRA.POLAR.0>
-0.196815

>  <SCORE.INTRA.REPUL>
0

>  <SCORE.INTRA.REPUL.0>
0

>  <SCORE.INTRA.SOLV>
-0.444932

>  <SCORE.INTRA.SOLV.lig_0>
-14.7906

>  <SCORE.INTRA.VDW>
13.9317

>  <SCORE.INTRA.VDW.0>
-0.411701

>  <SCORE.INTRA.norm>
0.608885

>  <SCORE.RESTR>
3.93699

>  <SCORE.RESTR.CAVITY>
3.93699

>  <SCORE.RESTR.norm>
0.131233

>  <SCORE.SYSTEM>
0

>  <SCORE.SYSTEM.CONST>
0

>  <SCORE.SYSTEM.DIHEDRAL>
0

>  <SCORE.SYSTEM.SOLV>
0

>  <SCORE.SYSTEM.norm>
0

>  <SCORE.heavy>
30

>  <SCORE.norm>
-0.207157

>  <RMSD>
16.957

$$$$
1uts_lig
 OpenBabel11021811413D
libRbt.so/2013.1/901 2013/11/27
 30 33  0  0  0  0  0  0  0  0999 V2000
   -4.5971  -11.7899    4.0197 N   0  0  0  0  0  0  0  0  0  0  0  0
   -6.2349   -9.9735    4.2550 C   0  0  0  0  0  0  0  0  0  0  0  0
   -9.6385   -9.3845    7.4528 C   0  0  0  0  0  0  0  0  0  0  0  0
   -6.9388   -9.1836    5.3621 C   0  0  0  0  0  0  0  0  0  0  0  0
   -8.2509   -8.8077    4.9184 O   0  0  0  0  0  0  0  0  0  0  0  0
   -5.7558  -11.3161    4.8099 C   0  0  0  0  0  0  0  0  0  0  0  0
   -9.5256   -9.4196    8.9286 N   0  0  0  0  0  0  0  0  0  0  0  0
   -8.3459   -8.6238    9.3598 C   0  0  0  0  0  0  0  0  0  0  0  0
   -8.8011   -7.4635   10.2497 C   0  0  0  0  0  0  0  0  0  0  0  0
   -9.4824   -8.0004   11.4490 N   0  0  0  0  0  0  0  0  0  0  0  0
  -10.9111   -7.5731   11.4363 C   0  0  0  0  0  0  0  0  0  0  0  0
   -8.7992   -7.4950   12.6732 C   0  0  0  0  0  0  0  0  0  0  0  0
  -11.6211   -8.1258   12.6828 C   0  0  0  0  0  0  0  0  0  0  0  0
   -9.5117   -8.0448   13.9221 C   0  0  0  0  0  0  0  0  0  0  0  0
  -10.9390   -7.6197   13.9075 N   0  0  0  0  0  0  0  0  0  0  0  0
   -9.0612   -5.2873    6.0055 C   0  0  0  0  0  0  0  0  0  0  0  0
  -11.5161   -1.1076   10.2219 N   0  0  0  0  0  0  0  0  0  0  0  0
   -9.7492   -5.5227    7.2198 C   0  0  0  0  0  0  0  0  0  0  0  0
   -9.9332   -6.8529    7.6828 C   0  0  0  0  0  0  0  0  0  0  0  0
   -9.4258   -7.9487    6.9320 C   0  0  0  0  0  0  0  0  0  0  0  0
   -8.7466   -7.7099    5.6996 C   0  0  0  0  0  0  0  0  0  0  0  0
   -8.5626   -6.3761    5.2427 C   0  0  0  0  0  0  0  0  0  0  0  0
  -10.2847   -0.8219   10.8540 C   0  0  0  0  0  0  0  0  0  0  0  0
   -9.2891   -1.7453   10.4618 C   0  0  0  0  0  0  0  0  0  0  0  0
   -9.3932   -3.7238    8.8374 C   0  0  0  0  0  0  0  0  0  0  0  0
  -10.2480   -4.4374    7.9538 C   0  0  0  0  0  0  0  0  0  0  0  0
  -11.6071   -4.0442    7.8107 C   0  0  0  0  0  0  0  0  0  0  0  0
  -12.1090   -2.9381    8.5483 C   0  0  0  0  0  0  0  0  0  0  0  0
  -11.2430   -2.2136    9.4259 C   0  0  0  0  0  0  0  0  0  0  0  0
   -9.8983   -2.6015    9.5693 C   0  0  0  0  0  0  0  0  0  0  0  0
  1  6  1  0  0  0  0
  2  4  1  0  0  0  0
  3  7  1  0  0  0  0
  4  5  1  0  0  0  0
  6  2  1  0  0  0  0
  7  8  1  0  0  0  0
  8  9  1  0  0  0  0
  9 10  1  0  0  0  0
 10 11  1  0  0  0  0
 10 12  1  0  0  0  0
 11 13  1  0  0  0  0
 13 15  1  0  0  0  0
 14 12  1  0  0  0  0
 15 14  1  0  0  0  0
 16 18  2  0  0  0  0
 16 22  1  0  0  0  0
 17 23  1  0  0  0  0
 17 29  1  0  0  0  0
 18 19  1  0  0  0  0
 18 26  1  0  0  0  0
 19 20  2  0  0  0  0
 20  3  1  0  0  0  0
 20 21  1  0  0  0  0
 21  5  1  0  0  0  0
 21 22  2  0  0  0  0
 23 24  2  0  0  0  0
 24 30  1  0  0  0  0
 25 26  2  0  0  0  0
 25 30  1  0  0  0  0
 26 27  1  0  0  0  0
 27 28  2  0  0  0  0
 28 29  1  0  0  0  0
 29 30  2  0  0  0  0
M  END
>  <CHROM.1>
68.76625226,-125.59314509,-44.72517995,-159.99675842,-154.10473309,118.63694035
60.50706158,-115.77247633,-83.19184902,-37.14042278,-86.33539342,-9.29544409
-6.69258883,8.61776280,-0.02530505,1.13656034,-0.81032801

>  <Name>
1uts_lig

>  <RI>
0

>  <Rbt.Current_Directory>
/home/itssahil/PROJECTS/Mol_Feturizer/New_Systems/rnas/1uts

>  <Rbt.Executable>
rbdock ($Id: //depot/dev/client3/rdock/2013.1/src/exe/rbdock.cxx#4 $)

>  <Rbt.Library>
libRbt.so (2013.1, Build901 2013/11/27)

>  <Rbt.Parameter_File>
/export/apps/rDock/src/rDock_2013.1_src/data/scripts/dock_solv.prm

>  <Rbt.Receptor>
prm/blind_docking_60.prm

>  <SCORE>
-23.7081

>  <SCORE.INTER>
-33.4689

>  <SCORE.INTER.CONST>
1

>  <SCORE.INTER.POLAR>
-2.72633

>  <SCORE.INTER.ROT>
10

>  <SCORE.INTER.SOLV>
10.9191

>  <SCORE.INTER.VDW>
-27.1311

>  <SCORE.INTER.norm>
-1.11563

>  <SCORE.INTRA>
7.64643

>  <SCORE.INTRA.DIHEDRAL>
9.46452

>  <SCORE.INTRA.DIHEDRAL.0>
18.0451

>  <SCORE.INTRA.POLAR>
0.196815

>  <SCORE.INTRA.POLAR.0>
-0.196815

>  <SCORE.INTRA.REPUL>
0

>  <SCORE.INTRA.REPUL.0>
0

>  <SCORE.INTRA.SOLV>
-0.265685

>  <SCORE.INTRA.SOLV.lig_0>
-14.7906

>  <SCORE.INTRA.VDW>
2.37784

>  <SCORE.INTRA.VDW.0>
-0.411701

>  <SCORE.INTRA.norm>
0.254881

>  <SCORE.RESTR>
2.1143

>  <SCORE.RESTR.CAVITY>
2.1143

>  <SCORE.RESTR.norm>
0.0704766

>  <SCORE.SYSTEM>
0

>  <SCORE.SYSTEM.CONST>
0

>  <SCORE.SYSTEM.DIHEDRAL>
0

>  <SCORE.SYSTEM.SOLV>
0

>  <SCORE.SYSTEM.norm>
0

>  <SCORE.heavy>
30

>  <SCORE.norm>
-0.790271

>  <RMSD>
16.967

$$$$
1uts_lig
 OpenBabel11021811413D
libRbt.so/2013.1/901 2013/11/27
 30 33  0  0  0  0  0  0  0  0999 V2000
   -4.8752  -10.8628    4.5790 N   0  0  0  0  0  0  0  0  0  0  0  0
   -6.8522   -9.4434    4.9164 C   0  0  0  0  0  0  0  0  0  0  0  0
   -9.0541   -8.9859    6.8073 C   0  0  0  0  0  0  0  0  0  0  0  0
   -7.3086   -8.3449    3.9519 C   0  0  0  0  0  0  0  0  0  0  0  0
   -8.7413   -8.2619    3.9684 O   0  0  0  0  0  0  0  0  0  0  0  0
   -5.3237   -9.4994    4.9416 C   0  0  0  0  0  0  0  0  0  0  0  0
   -8.1346   -8.9302    7.9664 N   0  0  0  0  0  0  0  0  0  0  0  0
   -8.8551   -9.3489    9.1978 C   0  0  0  0  0  0  0  0  0  0  0  0
   -8.4251   -8.4678   10.3743 C   0  0  0  0  0  0  0  0  0  0  0  0
   -9.0924   -7.1505   10.2730 N   0  0  0  0  0  0  0  0  0  0  0  0
   -8.4378   -6.1935   11.2108 C   0  0  0  0  0  0  0  0  0  0  0  0
  -10.5367   -7.3012   10.6079 C   0  0  0  0  0  0  0  0  0  0  0  0
   -9.1309   -4.8250   11.1111 C   0  0  0  0  0  0  0  0  0  0  0  0
  -11.2311   -5.9308   10.5121 C   0  0  0  0  0  0  0  0  0  0  0  0
  -10.5752   -4.9748   11.4472 N   0  0  0  0  0  0  0  0  0  0  0  0
   -9.8765   -4.9370    5.3426 C   0  0  0  0  0  0  0  0  0  0  0  0
  -11.6138   -1.1836   10.2718 N   0  0  0  0  0  0  0  0  0  0  0  0
  -10.0564   -5.2488    6.7114 C   0  0  0  0  0  0  0  0  0  0  0  0
   -9.7885   -6.5629    7.1793 C   0  0  0  0  0  0  0  0  0  0  0  0
   -9.3372   -7.5655    6.2777 C   0  0  0  0  0  0  0  0  0  0  0  0
   -9.1721   -7.2533    4.8948 C   0  0  0  0  0  0  0  0  0  0  0  0
   -9.4388   -5.9354    4.4327 C   0  0  0  0  0  0  0  0  0  0  0  0
  -10.3164   -0.8147   10.6944 C   0  0  0  0  0  0  0  0  0  0  0  0
   -9.3345   -1.6174   10.0705 C   0  0  0  0  0  0  0  0  0  0  0  0
   -9.5651   -3.5102    8.3592 C   0  0  0  0  0  0  0  0  0  0  0  0
  -10.5031   -4.2554    7.5941 C   0  0  0  0  0  0  0  0  0  0  0  0
  -11.8938   -3.9868    7.7205 C   0  0  0  0  0  0  0  0  0  0  0  0
  -12.3446   -2.9733    8.6088 C   0  0  0  0  0  0  0  0  0  0  0  0
  -11.3977   -2.2158    9.3668 C   0  0  0  0  0  0  0  0  0  0  0  0
  -10.0214   -2.4805    9.2435 C   0  0  0  0  0  0  0  0  0  0  0  0
  1  6  1  0  0  0  0
  2  4  1  0  0  0  0
  3  7  1  0  0  0  0
  4  5  1  0  0  0  0
  6  2  1  0  0  0  0
  7  8  1  0  0  0  0
  8  9  1  0  0  0  0
  9 10  1  0  0  0  0
 10 11  1  0  0  0  0
 10 12  1  0  0  0  0
 11 13  1  0  0  0  0
 13 15  1  0  0  0  0
 14 12  1  0  0  0  0
 15 14  1  0  0  0  0
 16 18  2  0  0  0  0
 16 22  1  0  0  0  0
 17 23  1  0  0  0  0
 17 29  1  0  0  0  0
 18 19  1  0  0  0  0
 18 26  1  0  0  0  0
 19 20  2  0  0  0  0
 20  3  1  0  0  0  0
 20 21  1  0  0  0  0
 21  5  1  0  0  0  0
 21 22  2  0  0  0  0
 23 24  2  0  0  0  0
 24 30  1  0  0  0  0
 25 26  2  0  0  0  0
 25 30  1  0  0  0  0
 26 27  1  0  0  0  0
 27 28  2  0  0  0  0
 28 29  1  0  0  0  0
 29 30  2  0  0  0  0
M  END
>  <CHROM.1>
-70.60027785,-177.87172042,112.48403817,94.64002402,-123.10463362,-140.48410334
76.88363840,-166.54802741,-95.67084229,-52.58922911,-85.60335922,-9.30348271
-6.09055276,7.95940802,-0.41879411,-1.09873479,1.76119257

>  <Name>
1uts_lig

>  <RI>
0

>  <Rbt.Current_Directory>
/home/itssahil/PROJECTS/Mol_Feturizer/New_Systems/rnas/1uts

>  <Rbt.Executable>
rbdock ($Id: //depot/dev/client3/rdock/2013.1/src/exe/rbdock.cxx#4 $)

>  <Rbt.Library>
libRbt.so (2013.1, Build901 2013/11/27)

>  <Rbt.Parameter_File>
/export/apps/rDock/src/rDock_2013.1_src/data/scripts/dock_solv.prm

>  <Rbt.Receptor>
prm/blind_docking_60.prm

>  <SCORE>
-20.118

>  <SCORE.INTER>
-24.8059

>  <SCORE.INTER.CONST>
1

>  <SCORE.INTER.POLAR>
-1.09542

>  <SCORE.INTER.ROT>
10

>  <SCORE.INTER.SOLV>
9.2528

>  <SCORE.INTER.VDW>
-26.2368

>  <SCORE.INTER.norm>
-0.826862

>  <SCORE.INTRA>
3.62637

>  <SCORE.INTRA.DIHEDRAL>
9.97768

>  <SCORE.INTRA.DIHEDRAL.0>
18.0451

>  <SCORE.INTRA.POLAR>
0.196815

>  <SCORE.INTRA.POLAR.0>
-0.196815

>  <SCORE.INTRA.REPUL>
0

>  <SCORE.INTRA.REPUL.0>
0

>  <SCORE.INTRA.SOLV>
0.515715

>  <SCORE.INTRA.SOLV.lig_0>
-14.7906

>  <SCORE.INTRA.VDW>
-2.2895

>  <SCORE.INTRA.VDW.0>
-0.411701

>  <SCORE.INTRA.norm>
0.120879

>  <SCORE.RESTR>
1.06148

>  <SCORE.RESTR.CAVITY>
1.06148

>  <SCORE.RESTR.norm>
0.0353827

>  <SCORE.SYSTEM>
0

>  <SCORE.SYSTEM.CONST>
0

>  <SCORE.SYSTEM.DIHEDRAL>
0

>  <SCORE.SYSTEM.SOLV>
0

>  <SCORE.SYSTEM.norm>
0

>  <SCORE.heavy>
30

>  <SCORE.norm>
-0.6706

>  <RMSD>
16.981

$$$$
1uts_lig
 OpenBabel11021811413D
libRbt.so/2013.1/901 2013/11/27
 30 33  0  0  0  0  0  0  0  0999 V2000
  -11.8409   -1.4394    8.4834 N   0  0  0  0  0  0  0  0  0  0  0  0
   -9.8789   -2.5141    9.4998 C   0  0  0  0  0  0  0  0  0  0  0  0
   -8.9604   -7.3527   10.5899 C   0  0  0  0  0  0  0  0  0  0  0  0
   -9.6006   -3.6787    8.5451 C   0  0  0  0  0  0  0  0  0  0  0  0
   -9.8836   -4.9182    9.2108 O   0  0  0  0  0  0  0  0  0  0  0  0
  -11.3884   -2.2902    9.6072 C   0  0  0  0  0  0  0  0  0  0  0  0
   -9.9878   -6.4686   11.1856 N   0  0  0  0  0  0  0  0  0  0  0  0
   -9.3571   -5.5765   12.1942 C   0  0  0  0  0  0  0  0  0  0  0  0
   -9.8468   -5.9518   13.5959 C   0  0  0  0  0  0  0  0  0  0  0  0
   -9.0597   -7.0987   14.1019 N   0  0  0  0  0  0  0  0  0  0  0  0
   -9.7511   -7.6864   15.2854 C   0  0  0  0  0  0  0  0  0  0  0  0
   -7.6937   -6.6344   14.4752 C   0  0  0  0  0  0  0  0  0  0  0  0
   -8.9344   -8.8757   15.8162 C   0  0  0  0  0  0  0  0  0  0  0  0
   -6.8762   -7.8238   15.0103 C   0  0  0  0  0  0  0  0  0  0  0  0
   -7.5685   -8.4117   16.1908 N   0  0  0  0  0  0  0  0  0  0  0  0
   -8.9478   -7.0174    6.2193 C   0  0  0  0  0  0  0  0  0  0  0  0
   -6.3630  -12.4171    3.7862 N   0  0  0  0  0  0  0  0  0  0  0  0
   -8.4790   -8.1979    6.8438 C   0  0  0  0  0  0  0  0  0  0  0  0
   -8.4854   -8.2998    8.2605 C   0  0  0  0  0  0  0  0  0  0  0  0
   -8.9641   -7.2210    9.0535 C   0  0  0  0  0  0  0  0  0  0  0  0
   -9.4211   -6.0252    8.4223 C   0  0  0  0  0  0  0  0  0  0  0  0
   -9.4153   -5.9301    7.0036 C   0  0  0  0  0  0  0  0  0  0  0  0
   -5.0009  -12.1797    4.0795 C   0  0  0  0  0  0  0  0  0  0  0  0
   -4.8543  -11.0547    4.9225 C   0  0  0  0  0  0  0  0  0  0  0  0
   -6.6106   -9.5019    5.9561 C   0  0  0  0  0  0  0  0  0  0  0  0
   -8.0072   -9.2569    6.0554 C   0  0  0  0  0  0  0  0  0  0  0  0
   -8.9246  -10.0916    5.3597 C   0  0  0  0  0  0  0  0  0  0  0  0
   -8.4455  -11.1703    4.5683 C   0  0  0  0  0  0  0  0  0  0  0  0
   -7.0406  -11.4228    4.4815 C   0  0  0  0  0  0  0  0  0  0  0  0
   -6.1315  -10.5977    5.1686 C   0  0  0  0  0  0  0  0  0  0  0  0
  1  6  1  0  0  0  0
  2  4  1  0  0  0  0
  3  7  1  0  0  0  0
  4  5  1  0  0  0  0
  6  2  1  0  0  0  0
  7  8  1  0  0  0  0
  8  9  1  0  0  0  0
  9 10  1  0  0  0  0
 10 11  1  0  0  0  0
 10 12  1  0  0  0  0
 11 13  1  0  0  0  0
 13 15  1  0  0  0  0
 14 12  1  0  0  0  0
 15 14  1  0  0  0  0
 16 18  2  0  0  0  0
 16 22  1  0  0  0  0
 17 23  1  0  0  0  0
 17 29  1  0  0  0  0
 18 19  1  0  0  0  0
 18 26  1  0  0  0  0
 19 20  2  0  0  0  0
 20  3  1  0  0  0  0
 20 21  1  0  0  0  0
 21  5  1  0  0  0  0
 21 22  2  0  0  0  0
 23 24  2  0  0  0  0
 24 30  1  0  0  0  0
 25 26  2  0  0  0  0
 25 30  1  0  0  0  0
 26 27  1  0  0  0  0
 27 28  2  0  0  0  0
 28 29  1  0  0  0  0
 29 30  2  0  0  0  0
M  END
>  <CHROM.1>
179.28508484,-76.22529680,-125.15973664,-170.34624252,-84.06949245,-111.85895677
82.22744639,-165.37346555,104.73848462,-154.97103378,148.51907978,-8.59002228
-7.45248580,9.30591171,2.11586946,-1.08498672,1.55892599

>  <Name>
1uts_lig

>  <RI>
0

>  <Rbt.Current_Directory>
/home/itssahil/PROJECTS/Mol_Feturizer/New_Systems/rnas/1uts

>  <Rbt.Executable>
rbdock ($Id: //depot/dev/client3/rdock/2013.1/src/exe/rbdock.cxx#4 $)

>  <Rbt.Library>
libRbt.so (2013.1, Build901 2013/11/27)

>  <Rbt.Parameter_File>
/export/apps/rDock/src/rDock_2013.1_src/data/scripts/dock_solv.prm

>  <Rbt.Receptor>
prm/blind_docking_80.prm

>  <SCORE>
-28.4471

>  <SCORE.INTER>
-30.7388

>  <SCORE.INTER.CONST>
1

>  <SCORE.INTER.POLAR>
-1.71268

>  <SCORE.INTER.ROT>
10

>  <SCORE.INTER.SOLV>
7.63957

>  <SCORE.INTER.VDW>
-27.5968

>  <SCORE.INTER.norm>
-1.02463

>  <SCORE.INTRA>
1.46651

>  <SCORE.INTRA.DIHEDRAL>
0.89939

>  <SCORE.INTRA.DIHEDRAL.0>
18.0451

>  <SCORE.INTRA.POLAR>
-0.536609

>  <SCORE.INTRA.POLAR.0>
-0.196815

>  <SCORE.INTRA.REPUL>
0

>  <SCORE.INTRA.REPUL.0>
0

>  <SCORE.INTRA.SOLV>
0.124193

>  <SCORE.INTRA.SOLV.lig_0>
-14.7906

>  <SCORE.INTRA.VDW>
2.77919

>  <SCORE.INTRA.VDW.0>
-0.411701

>  <SCORE.INTRA.norm>
0.0488835

>  <SCORE.RESTR>
0.825249

>  <SCORE.RESTR.CAVITY>
0.825249

>  <SCORE.RESTR.norm>
0.0275083

>  <SCORE.SYSTEM>
0

>  <SCORE.SYSTEM.CONST>
0

>  <SCORE.SYSTEM.DIHEDRAL>
0

>  <SCORE.SYSTEM.SOLV>
0

>  <SCORE.SYSTEM.norm>
0

>  <SCORE.heavy>
30

>  <SCORE.norm>
-0.948235

>  <RMSD>
16.996

$$$$
1uts_lig
 OpenBabel11021811413D
libRbt.so/2013.1/901 2013/11/27
 30 33  0  0  0  0  0  0  0  0999 V2000
  -11.7045   -1.3340    8.4642 N   0  0  0  0  0  0  0  0  0  0  0  0
  -10.6917   -3.1384    9.7893 C   0  0  0  0  0  0  0  0  0  0  0  0
   -9.1635   -7.6561   10.4407 C   0  0  0  0  0  0  0  0  0  0  0  0
  -10.1243   -4.0579    8.7040 C   0  0  0  0  0  0  0  0  0  0  0  0
  -10.4496   -5.4204    9.0164 O   0  0  0  0  0  0  0  0  0  0  0  0
  -10.5645   -1.6808    9.3426 C   0  0  0  0  0  0  0  0  0  0  0  0
  -10.5893   -7.4950   10.8059 N   0  0  0  0  0  0  0  0  0  0  0  0
  -10.6957   -6.7829   12.1069 C   0  0  0  0  0  0  0  0  0  0  0  0
  -10.5524   -5.2744   11.8848 C   0  0  0  0  0  0  0  0  0  0  0  0
   -9.4232   -4.7626   12.6934 N   0  0  0  0  0  0  0  0  0  0  0  0
   -9.3092   -3.2880   12.5022 C   0  0  0  0  0  0  0  0  0  0  0  0
   -8.1652   -5.4406   12.2705 C   0  0  0  0  0  0  0  0  0  0  0  0
   -8.1348   -2.7533   13.3376 C   0  0  0  0  0  0  0  0  0  0  0  0
   -6.9879   -4.9032   13.1039 C   0  0  0  0  0  0  0  0  0  0  0  0
   -6.8762   -3.4302   12.9143 N   0  0  0  0  0  0  0  0  0  0  0  0
   -8.5662   -6.9904    6.1495 C   0  0  0  0  0  0  0  0  0  0  0  0
   -4.7456  -11.6105    3.7977 N   0  0  0  0  0  0  0  0  0  0  0  0
   -7.9157   -8.0659    6.8001 C   0  0  0  0  0  0  0  0  0  0  0  0
   -8.1132   -8.2757    8.1909 C   0  0  0  0  0  0  0  0  0  0  0  0
   -8.9649   -7.4106    8.9313 C   0  0  0  0  0  0  0  0  0  0  0  0
   -9.6070   -6.3169    8.2767 C   0  0  0  0  0  0  0  0  0  0  0  0
   -9.4080   -6.1137    6.8836 C   0  0  0  0  0  0  0  0  0  0  0  0
   -5.6983  -12.6490    3.6902 C   0  0  0  0  0  0  0  0  0  0  0  0
   -6.8912  -12.3127    4.3697 C   0  0  0  0  0  0  0  0  0  0  0  0
   -7.5375  -10.1967    5.6616 C   0  0  0  0  0  0  0  0  0  0  0  0
   -7.0763   -8.9138    6.0637 C   0  0  0  0  0  0  0  0  0  0  0  0
   -5.7654   -8.4895    5.7121 C   0  0  0  0  0  0  0  0  0  0  0  0
   -4.9189   -9.3462    4.9578 C   0  0  0  0  0  0  0  0  0  0  0  0
   -5.3908  -10.6308    4.5428 C   0  0  0  0  0  0  0  0  0  0  0  0
   -6.6872  -11.0525    4.8903 C   0  0  0  0  0  0  0  0  0  0  0  0
  1  6  1  0  0  0  0
  2  4  1  0  0  0  0
  3  7  1  0  0  0  0
  4  5  1  0  0  0  0
  6  2  1  0  0  0  0
  7  8  1  0  0  0  0
  8  9  1  0  0  0  0
  9 10  1  0  0  0  0
 10 11  1  0  0  0  0
 10 12  1  0  0  0  0
 11 13  1  0  0  0  0
 13 15  1  0  0  0  0
 14 12  1  0  0  0  0
 15 14  1  0  0  0  0
 16 18  2  0  0  0  0
 16 22  1  0  0  0  0
 17 23  1  0  0  0  0
 17 29  1  0  0  0  0
 18 19  1  0  0  0  0
 18 26  1  0  0  0  0
 19 20  2  0  0  0  0
 20  3  1  0  0  0  0
 20 21  1  0  0  0  0
 21  5  1  0  0  0  0
 21 22  2  0  0  0  0
 23 24  2  0  0  0  0
 24 30  1  0  0  0  0
 25 26  2  0  0  0  0
 25 30  1  0  0  0  0
 26 27  1  0  0  0  0
 27 28  2  0  0  0  0
 28 29  1  0  0  0  0
 29 30  2  0  0  0  0
M  END
>  <CHROM.1>
47.41609480,-170.16864204,-139.59281156,-162.21373576,83.16885192,81.38896487
-122.47087111,-178.53042638,-102.25873183,-137.32279433,132.79540682,-8.43575566
-6.70197711,8.68620628,2.13207027,-0.89168481,1.22409899

>  <Name>
1uts_lig

>  <RI>
0

>  <Rbt.Current_Directory>
/home/itssahil/PROJECTS/Mol_Feturizer/New_Systems/rnas/1uts

>  <Rbt.Executable>
rbdock ($Id: //depot/dev/client3/rdock/2013.1/src/exe/rbdock.cxx#4 $)

>  <Rbt.Library>
libRbt.so (2013.1, Build901 2013/11/27)

>  <Rbt.Parameter_File>
/export/apps/rDock/src/rDock_2013.1_src/data/scripts/dock_solv.prm

>  <Rbt.Receptor>
prm/blind_docking_80.prm

>  <SCORE>
-25.6046

>  <SCORE.INTER>
-29.835

>  <SCORE.INTER.CONST>
1

>  <SCORE.INTER.POLAR>
-2.51853

>  <SCORE.INTER.ROT>
10

>  <SCORE.INTER.SOLV>
10.2839

>  <SCORE.INTER.VDW>
-25.1895

>  <SCORE.INTER.norm>
-0.9945

>  <SCORE.INTRA>
3.18409

>  <SCORE.INTRA.DIHEDRAL>
3.07738

>  <SCORE.INTRA.DIHEDRAL.0>
18.0451

>  <SCORE.INTRA.POLAR>
-0.414621

>  <SCORE.INTRA.POLAR.0>
-0.196815

>  <SCORE.INTRA.REPUL>
0

>  <SCORE.INTRA.REPUL.0>
0

>  <SCORE.INTRA.SOLV>
0.154946

>  <SCORE.INTRA.SOLV.lig_0>
-14.7906

>  <SCORE.INTRA.VDW>
2.97764

>  <SCORE.INTRA.VDW.0>
-0.411701

>  <SCORE.INTRA.norm>
0.106136

>  <SCORE.RESTR>
1.04628

>  <SCORE.RESTR.CAVITY>
1.04628

>  <SCORE.RESTR.norm>
0.0348761

>  <SCORE.SYSTEM>
0

>  <SCORE.SYSTEM.CONST>
0

>  <SCORE.SYSTEM.DIHEDRAL>
0

>  <SCORE.SYSTEM.SOLV>
0

>  <SCORE.SYSTEM.norm>
0

>  <SCORE.heavy>
30

>  <SCORE.norm>
-0.853487

>  <RMSD>
17.001

$$$$
1uts_lig
 OpenBabel11021811413D
libRbt.so/2013.1/901 2013/11/27
 30 33  0  0  0  0  0  0  0  0999 V2000
   -5.2499  -10.4802    4.8909 N   0  0  0  0  0  0  0  0  0  0  0  0
   -6.6031   -8.5966    4.0796 C   0  0  0  0  0  0  0  0  0  0  0  0
  -10.4586   -6.1509    6.6840 C   0  0  0  0  0  0  0  0  0  0  0  0
   -6.9013   -7.8966    5.4086 C   0  0  0  0  0  0  0  0  0  0  0  0
   -8.3191   -7.8814    5.6311 O   0  0  0  0  0  0  0  0  0  0  0  0
   -6.5548  -10.1099    4.2980 C   0  0  0  0  0  0  0  0  0  0  0  0
   -9.9593   -4.7611    6.7899 N   0  0  0  0  0  0  0  0  0  0  0  0
  -10.4681   -4.1401    8.0415 C   0  0  0  0  0  0  0  0  0  0  0  0
   -9.3737   -4.1624    9.1127 C   0  0  0  0  0  0  0  0  0  0  0  0
   -9.8234   -3.3900   10.2925 N   0  0  0  0  0  0  0  0  0  0  0  0
   -9.6324   -1.9345   10.0302 C   0  0  0  0  0  0  0  0  0  0  0  0
   -9.0380   -3.8106   11.4872 C   0  0  0  0  0  0  0  0  0  0  0  0
  -10.0949   -1.1291   11.2552 C   0  0  0  0  0  0  0  0  0  0  0  0
   -9.4977   -3.0022   12.7138 C   0  0  0  0  0  0  0  0  0  0  0  0
   -9.3089   -1.5485   12.4501 N   0  0  0  0  0  0  0  0  0  0  0  0
   -8.1262   -8.7979    9.2855 C   0  0  0  0  0  0  0  0  0  0  0  0
   -9.9395   -7.9048   15.3990 N   0  0  0  0  0  0  0  0  0  0  0  0
   -9.1337   -7.9686    9.8336 C   0  0  0  0  0  0  0  0  0  0  0  0
   -9.8855   -7.1129    8.9851 C   0  0  0  0  0  0  0  0  0  0  0  0
   -9.6314   -7.0888    7.5862 C   0  0  0  0  0  0  0  0  0  0  0  0
   -8.6039   -7.9138    7.0378 C   0  0  0  0  0  0  0  0  0  0  0  0
   -7.8566   -8.7706    7.8917 C   0  0  0  0  0  0  0  0  0  0  0  0
   -8.8048   -7.1303   15.7312 C   0  0  0  0  0  0  0  0  0  0  0  0
   -8.0634   -6.7985   14.5746 C   0  0  0  0  0  0  0  0  0  0  0  0
   -8.4844   -7.3450   12.1071 C   0  0  0  0  0  0  0  0  0  0  0  0
   -9.3776   -7.9968   11.2139 C   0  0  0  0  0  0  0  0  0  0  0  0
  -10.5218   -8.6710   11.7222 C   0  0  0  0  0  0  0  0  0  0  0  0
  -10.7728   -8.6909   13.1208 C   0  0  0  0  0  0  0  0  0  0  0  0
   -9.8799   -8.0224   14.0156 C   0  0  0  0  0  0  0  0  0  0  0  0
   -8.7470   -7.3554   13.5147 C   0  0  0  0  0  0  0  0  0  0  0  0
  1  6  1  0  0  0  0
  2  4  1  0  0  0  0
  3  7  1  0  0  0  0
  4  5  1  0  0  0  0
  6  2  1  0  0  0  0
  7  8  1  0  0  0  0
  8  9  1  0  0  0  0
  9 10  1  0  0  0  0
 10 11  1  0  0  0  0
 10 12  1  0  0  0  0
 11 13  1  0  0  0  0
 13 15  1  0  0  0  0
 14 12  1  0  0  0  0
 15 14  1  0  0  0  0
 16 18  2  0  0  0  0
 16 22  1  0  0  0  0
 17 23  1  0  0  0  0
 17 29  1  0  0  0  0
 18 19  1  0  0  0  0
 18 26  1  0  0  0  0
 19 20  2  0  0  0  0
 20  3  1  0  0  0  0
 20 21  1  0  0  0  0
 21  5  1  0  0  0  0
 21 22  2  0  0  0  0
 23 24  2  0  0  0  0
 24 30  1  0  0  0  0
 25 26  2  0  0  0  0
 25 30  1  0  0  0  0
 26 27  1  0  0  0  0
 27 28  2  0  0  0  0
 28 29  1  0  0  0  0
 29 30  2  0  0  0  0
M  END
>  <CHROM.1>
62.94317857,-84.09287501,-78.75129766,149.65656535,-78.79761446,100.62716504
172.72670091,-79.92930301,76.01040757,78.36633746,137.99529736,-8.93997631
-6.48754177,9.74164992,-0.51859747,-1.27820722,2.17254633

>  <Name>
1uts_lig

>  <RI>
0

>  <Rbt.Current_Directory>
/home/itssahil/PROJECTS/Mol_Feturizer/New_Systems/rnas/1uts

>  <Rbt.Executable>
rbdock ($Id: //depot/dev/client3/rdock/2013.1/src/exe/rbdock.cxx#4 $)

>  <Rbt.Library>
libRbt.so (2013.1, Build901 2013/11/27)

>  <Rbt.Parameter_File>
/export/apps/rDock/src/rDock_2013.1_src/data/scripts/dock_solv.prm

>  <Rbt.Receptor>
prm/blind_docking_80.prm

>  <SCORE>
-32.2257

>  <SCORE.INTER>
-35.5679

>  <SCORE.INTER.CONST>
1

>  <SCORE.INTER.POLAR>
-2.42076

>  <SCORE.INTER.ROT>
10

>  <SCORE.INTER.SOLV>
8.02571

>  <SCORE.INTER.VDW>
-28.5847

>  <SCORE.INTER.norm>
-1.1856

>  <SCORE.INTRA>
1.45075

>  <SCORE.INTRA.DIHEDRAL>
0.891568

>  <SCORE.INTRA.DIHEDRAL.0>
18.0451

>  <SCORE.INTRA.POLAR>
0.196815

>  <SCORE.INTRA.POLAR.0>
-0.196815

>  <SCORE.INTRA.REPUL>
0

>  <SCORE.INTRA.REPUL.0>
0

>  <SCORE.INTRA.SOLV>
-0.322478

>  <SCORE.INTRA.SOLV.lig_0>
-14.7906

>  <SCORE.INTRA.VDW>
0.497037

>  <SCORE.INTRA.VDW.0>
-0.411701

>  <SCORE.INTRA.norm>
0.0483585

>  <SCORE.RESTR>
1.89143

>  <SCORE.RESTR.CAVITY>
1.89143

>  <SCORE.RESTR.norm>
0.0630476

>  <SCORE.SYSTEM>
0

>  <SCORE.SYSTEM.CONST>
0

>  <SCORE.SYSTEM.DIHEDRAL>
0

>  <SCORE.SYSTEM.SOLV>
0

>  <SCORE.SYSTEM.norm>
0

>  <SCORE.heavy>
30

>  <SCORE.norm>
-1.07419

>  <RMSD>
17.048

$$$$
1uts_lig
 OpenBabel11021811413D
libRbt.so/2013.1/901 2013/11/27
 30 33  0  0  0  0  0  0  0  0999 V2000
  -10.3552   -2.6399    9.0262 N   0  0  0  0  0  0  0  0  0  0  0  0
  -12.0641   -4.4036    8.9474 C   0  0  0  0  0  0  0  0  0  0  0  0
   -9.3377   -6.8915    8.7747 C   0  0  0  0  0  0  0  0  0  0  0  0
  -12.7843   -5.4169    9.8417 C   0  0  0  0  0  0  0  0  0  0  0  0
  -12.0974   -6.6757    9.7839 O   0  0  0  0  0  0  0  0  0  0  0  0
  -10.8025   -3.9039    9.6537 C   0  0  0  0  0  0  0  0  0  0  0  0
   -8.2907   -7.9103    8.5341 N   0  0  0  0  0  0  0  0  0  0  0  0
   -8.3795   -8.3986    7.1325 C   0  0  0  0  0  0  0  0  0  0  0  0
   -7.0706   -9.0908    6.7413 C   0  0  0  0  0  0  0  0  0  0  0  0
   -7.3045   -9.9581    5.5648 N   0  0  0  0  0  0  0  0  0  0  0  0
   -6.1123  -10.8277    5.3494 C   0  0  0  0  0  0  0  0  0  0  0  0
   -7.5517   -9.1082    4.3658 C   0  0  0  0  0  0  0  0  0  0  0  0
   -6.3501  -11.7273    4.1258 C   0  0  0  0  0  0  0  0  0  0  0  0
   -7.7862  -10.0080    3.1391 C   0  0  0  0  0  0  0  0  0  0  0  0
   -6.5962  -10.8779    2.9260 N   0  0  0  0  0  0  0  0  0  0  0  0
  -10.2272   -6.6512   13.0602 C   0  0  0  0  0  0  0  0  0  0  0  0
   -4.7981   -7.1866   16.4542 N   0  0  0  0  0  0  0  0  0  0  0  0
   -8.8885   -6.7721   12.6170 C   0  0  0  0  0  0  0  0  0  0  0  0
   -8.6073   -6.8500   11.2269 C   0  0  0  0  0  0  0  0  0  0  0  0
   -9.6660   -6.8037   10.2788 C   0  0  0  0  0  0  0  0  0  0  0  0
  -11.0164   -6.6982   10.7285 C   0  0  0  0  0  0  0  0  0  0  0  0
  -11.2917   -6.6175   12.1211 C   0  0  0  0  0  0  0  0  0  0  0  0
   -5.2845   -8.3436   17.1042 C   0  0  0  0  0  0  0  0  0  0  0  0
   -6.4951   -8.7801   16.5197 C   0  0  0  0  0  0  0  0  0  0  0  0
   -7.8303   -7.8410   14.5450 C   0  0  0  0  0  0  0  0  0  0  0  0
   -7.8500   -6.8186   13.5577 C   0  0  0  0  0  0  0  0  0  0  0  0
   -6.8115   -5.8478   13.5218 C   0  0  0  0  0  0  0  0  0  0  0  0
   -5.7545   -5.9015   14.4702 C   0  0  0  0  0  0  0  0  0  0  0  0
   -5.7301   -6.9395   15.4535 C   0  0  0  0  0  0  0  0  0  0  0  0
   -6.7570   -7.9005   15.4910 C   0  0  0  0  0  0  0  0  0  0  0  0
  1  6  1  0  0  0  0
  2  4  1  0  0  0  0
  3  7  1  0  0  0  0
  4  5  1  0  0  0  0
  6  2  1  0  0  0  0
  7  8  1  0  0  0  0
  8  9  1  0  0  0  0
  9 10  1  0  0  0  0
 10 11  1  0  0  0  0
 10 12  1  0  0  0  0
 11 13  1  0  0  0  0
 13 15  1  0  0  0  0
 14 12  1  0  0  0  0
 15 14  1  0  0  0  0
 16 18  2  0  0  0  0
 16 22  1  0  0  0  0
 17 23  1  0  0  0  0
 17 29  1  0  0  0  0
 18 19  1  0  0  0  0
 18 26  1  0  0  0  0
 19 20  2  0  0  0  0
 20  3  1  0  0  0  0
 20 21  1  0  0  0  0
 21  5  1  0  0  0  0
 21 22  2  0  0  0  0
 23 24  2  0  0  0  0
 24 30  1  0  0  0  0
 25 26  2  0  0  0  0
 25 30  1  0  0  0  0
 26 27  1  0  0  0  0
 27 28  2  0  0  0  0
 28 29  1  0  0  0  0
 29 30  2  0  0  0  0
M  END
>  <CHROM.1>
73.06284112,-76.95841913,156.29416114,85.14555339,-161.60763754,162.05987716
160.89197407,-169.02213266,58.84904741,41.58532553,-115.99852248,-8.34967493
-7.46464625,10.16293481,1.52191497,-0.66859624,1.27652653

>  <Name>
1uts_lig

>  <RI>
0

>  <Rbt.Current_Directory>
/home/itssahil/PROJECTS/Mol_Feturizer/New_Systems/rnas/1uts

>  <Rbt.Executable>
rbdock ($Id: //depot/dev/client3/rdock/2013.1/src/exe/rbdock.cxx#4 $)

>  <Rbt.Library>
libRbt.so (2013.1, Build901 2013/11/27)

>  <Rbt.Parameter_File>
/export/apps/rDock/src/rDock_2013.1_src/data/scripts/dock_solv.prm

>  <Rbt.Receptor>
prm/blind_docking_80.prm

>  <SCORE>
-26.4672

>  <SCORE.INTER>
-27.7077

>  <SCORE.INTER.CONST>
1

>  <SCORE.INTER.POLAR>
-1.52293

>  <SCORE.INTER.ROT>
10

>  <SCORE.INTER.SOLV>
6.08663

>  <SCORE.INTER.VDW>
-25.6909

>  <SCORE.INTER.norm>
-0.923589

>  <SCORE.INTRA>
0.253297

>  <SCORE.INTRA.DIHEDRAL>
-1.15332

>  <SCORE.INTRA.DIHEDRAL.0>
18.0451

>  <SCORE.INTRA.POLAR>
0.196815

>  <SCORE.INTRA.POLAR.0>
-0.196815

>  <SCORE.INTRA.REPUL>
0

>  <SCORE.INTRA.REPUL.0>
0

>  <SCORE.INTRA.SOLV>
-0.564096

>  <SCORE.INTRA.SOLV.lig_0>
-14.7906

>  <SCORE.INTRA.VDW>
0.442833

>  <SCORE.INTRA.VDW.0>
-0.411701

>  <SCORE.INTRA.norm>
0.00844324

>  <SCORE.RESTR>
0.987137

>  <SCORE.RESTR.CAVITY>
0.987137

>  <SCORE.RESTR.norm>
0.0329046

>  <SCORE.SYSTEM>
0

>  <SCORE.SYSTEM.CONST>
0

>  <SCORE.SYSTEM.DIHEDRAL>
0

>  <SCORE.SYSTEM.SOLV>
0

>  <SCORE.SYSTEM.norm>
0

>  <SCORE.heavy>
30

>  <SCORE.norm>
-0.882241

>  <RMSD>
17.051

$$$$
1uts_lig
 OpenBabel11021811413D
libRbt.so/2013.1/901 2013/11/27
 30 33  0  0  0  0  0  0  0  0999 V2000
   -8.6904   -7.7505   14.7330 N   0  0  0  0  0  0  0  0  0  0  0  0
  -10.3441   -9.5291   14.3601 C   0  0  0  0  0  0  0  0  0  0  0  0
  -11.8271   -6.2970   10.9069 C   0  0  0  0  0  0  0  0  0  0  0  0
  -10.7366   -9.0725   12.9520 C   0  0  0  0  0  0  0  0  0  0  0  0
  -10.0236   -7.8706   12.6251 O   0  0  0  0  0  0  0  0  0  0  0  0
   -9.9754   -8.3109   15.2087 C   0  0  0  0  0  0  0  0  0  0  0  0
  -11.5396   -5.7958   12.2700 N   0  0  0  0  0  0  0  0  0  0  0  0
  -10.8347   -4.4893   12.1850 C   0  0  0  0  0  0  0  0  0  0  0  0
   -9.7290   -4.5653   11.1280 C   0  0  0  0  0  0  0  0  0  0  0  0
   -9.8759   -3.4386   10.1795 N   0  0  0  0  0  0  0  0  0  0  0  0
   -9.6280   -2.1552   10.8973 C   0  0  0  0  0  0  0  0  0  0  0  0
  -11.2497   -3.4546    9.6021 C   0  0  0  0  0  0  0  0  0  0  0  0
   -9.7836   -0.9821    9.9160 C   0  0  0  0  0  0  0  0  0  0  0  0
  -11.4078   -2.2782    8.6221 C   0  0  0  0  0  0  0  0  0  0  0  0
  -11.1578   -0.9969    9.3392 N   0  0  0  0  0  0  0  0  0  0  0  0
   -8.3855   -8.4705    9.2803 C   0  0  0  0  0  0  0  0  0  0  0  0
   -7.9661   -7.7576    2.9401 N   0  0  0  0  0  0  0  0  0  0  0  0
   -9.2383   -7.7406    8.4182 C   0  0  0  0  0  0  0  0  0  0  0  0
  -10.3520   -7.0389    8.9518 C   0  0  0  0  0  0  0  0  0  0  0  0
  -10.6113   -7.0647   10.3496 C   0  0  0  0  0  0  0  0  0  0  0  0
   -9.7595   -7.8147   11.2151 C   0  0  0  0  0  0  0  0  0  0  0  0
   -8.6444   -8.5127   10.6757 C   0  0  0  0  0  0  0  0  0  0  0  0
   -6.5845   -8.0199    3.0822 C   0  0  0  0  0  0  0  0  0  0  0  0
   -6.2263   -8.1165    4.4460 C   0  0  0  0  0  0  0  0  0  0  0  0
   -7.6535   -7.9268    6.5652 C   0  0  0  0  0  0  0  0  0  0  0  0
   -8.9771   -7.7209    7.0409 C   0  0  0  0  0  0  0  0  0  0  0  0
  -10.0362   -7.5022    6.1174 C   0  0  0  0  0  0  0  0  0  0  0  0
   -9.7716   -7.4917    4.7212 C   0  0  0  0  0  0  0  0  0  0  0  0
   -8.4414   -7.7129    4.2452 C   0  0  0  0  0  0  0  0  0  0  0  0
   -7.3922   -7.9289    5.1574 C   0  0  0  0  0  0  0  0  0  0  0  0
  1  6  1  0  0  0  0
  2  4  1  0  0  0  0
  3  7  1  0  0  0  0
  4  5  1  0  0  0  0
  6  2  1  0  0  0  0
  7  8  1  0  0  0  0
  8  9  1  0  0  0  0
  9 10  1  0  0  0  0
 10 11  1  0  0  0  0
 10 12  1  0  0  0  0
 11 13  1  0  0  0  0
 13 15  1  0  0  0  0
 14 12  1  0  0  0  0
 15 14  1  0  0  0  0
 16 18  2  0  0  0  0
 16 22  1  0  0  0  0
 17 23  1  0  0  0  0
 17 29  1  0  0  0  0
 18 19  1  0  0  0  0
 18 26  1  0  0  0  0
 19 20  2  0  0  0  0
 20  3  1  0  0  0  0
 20 21  1  0  0  0  0
 21  5  1  0  0  0  0
 21 22  2  0  0  0  0
 23 24  2  0  0  0  0
 24 30  1  0  0  0  0
 25 26  2  0  0  0  0
 25 30  1  0  0  0  0
 26 27  1  0  0  0  0
 27 28  2  0  0  0  0
 28 29  1  0  0  0  0
 29 30  2  0  0  0  0
M  END
>  <CHROM.1>
55.81155711,29.83354595,85.17142245,148.25398899,-70.47556236,-45.06033269
127.96338885,65.80392028,-25.70530996,-147.98978293,97.50994873,-9.60764886
-6.37744194,9.42169306,-2.49437051,1.22084752,-0.84640950

>  <Name>
1uts_lig

>  <RI>
0

>  <Rbt.Current_Directory>
/home/itssahil/PROJECTS/Mol_Feturizer/New_Systems/rnas/1uts

>  <Rbt.Executable>
rbdock ($Id: //depot/dev/client3/rdock/2013.1/src/exe/rbdock.cxx#4 $)

>  <Rbt.Library>
libRbt.so (2013.1, Build901 2013/11/27)

>  <Rbt.Parameter_File>
/export/apps/rDock/src/rDock_2013.1_src/data/scripts/dock_solv.prm

>  <Rbt.Receptor>
prm/blind_docking_100.prm

>  <SCORE>
-10.1071

>  <SCORE.INTER>
-22.8316

>  <SCORE.INTER.CONST>
1

>  <SCORE.INTER.POLAR>
-1.44975

>  <SCORE.INTER.ROT>
10

>  <SCORE.INTER.SOLV>
9.43582

>  <SCORE.INTER.VDW>
-23.8005

>  <SCORE.INTER.norm>
-0.761053

>  <SCORE.INTRA>
7.54953

>  <SCORE.INTRA.DIHEDRAL>
2.69802

>  <SCORE.INTRA.DIHEDRAL.0>
18.0451

>  <SCORE.INTRA.POLAR>
-1.28469

>  <SCORE.INTRA.POLAR.0>
-0.196815

>  <SCORE.INTRA.REPUL>
0.000531036

>  <SCORE.INTRA.REPUL.0>
0

>  <SCORE.INTRA.SOLV>
0.79069

>  <SCORE.INTRA.SOLV.lig_0>
-14.7906

>  <SCORE.INTRA.VDW>
10.1705

>  <SCORE.INTRA.VDW.0>
-0.411701

>  <SCORE.INTRA.norm>
0.251651

>  <SCORE.RESTR>
5.17493

>  <SCORE.RESTR.CAVITY>
5.17493

>  <SCORE.RESTR.norm>
0.172498

>  <SCORE.SYSTEM>
0

>  <SCORE.SYSTEM.CONST>
0

>  <SCORE.SYSTEM.DIHEDRAL>
0

>  <SCORE.SYSTEM.SOLV>
0

>  <SCORE.SYSTEM.norm>
0

>  <SCORE.heavy>
30

>  <SCORE.norm>
-0.336904

>  <RMSD>
17.075

$$$$
1uts_lig
 OpenBabel11021811413D
libRbt.so/2013.1/901 2013/11/27
 30 33  0  0  0  0  0  0  0  0999 V2000
   -4.9857  -10.1545    4.8022 N   0  0  0  0  0  0  0  0  0  0  0  0
   -7.2415  -10.7550    4.0356 C   0  0  0  0  0  0  0  0  0  0  0  0
   -8.2116   -9.5590    9.0487 C   0  0  0  0  0  0  0  0  0  0  0  0
   -8.0455  -10.5778    5.3269 C   0  0  0  0  0  0  0  0  0  0  0  0
   -7.2740   -9.8161    6.2673 O   0  0  0  0  0  0  0  0  0  0  0  0
   -5.8445  -11.2804    4.3708 C   0  0  0  0  0  0  0  0  0  0  0  0
   -9.3785   -9.6685    9.9534 N   0  0  0  0  0  0  0  0  0  0  0  0
   -9.3338   -8.5775   10.9627 C   0  0  0  0  0  0  0  0  0  0  0  0
  -10.5890   -7.7084   10.8418 C   0  0  0  0  0  0  0  0  0  0  0  0
  -10.3899   -6.4483   11.5924 N   0  0  0  0  0  0  0  0  0  0  0  0
  -11.6976   -5.7446   11.7287 C   0  0  0  0  0  0  0  0  0  0  0  0
   -9.4108   -5.5904   10.8669 C   0  0  0  0  0  0  0  0  0  0  0  0
  -11.4941   -4.4332   12.5046 C   0  0  0  0  0  0  0  0  0  0  0  0
   -9.2090   -4.2753   11.6409 C   0  0  0  0  0  0  0  0  0  0  0  0
  -10.5158   -3.5742   11.7788 N   0  0  0  0  0  0  0  0  0  0  0  0
   -8.9340   -6.4348    6.0599 C   0  0  0  0  0  0  0  0  0  0  0  0
  -12.0641   -1.5265    8.8020 N   0  0  0  0  0  0  0  0  0  0  0  0
   -9.4168   -6.2806    7.3814 C   0  0  0  0  0  0  0  0  0  0  0  0
   -9.1797   -7.2970    8.3448 C   0  0  0  0  0  0  0  0  0  0  0  0
   -8.4560   -8.4676    7.9870 C   0  0  0  0  0  0  0  0  0  0  0  0
   -7.9841   -8.6284    6.6496 C   0  0  0  0  0  0  0  0  0  0  0  0
   -8.2218   -7.6062    5.6903 C   0  0  0  0  0  0  0  0  0  0  0  0
  -10.9374   -0.8462    9.3172 C   0  0  0  0  0  0  0  0  0  0  0  0
   -9.7820   -1.6572    9.2473 C   0  0  0  0  0  0  0  0  0  0  0  0
   -9.4605   -4.0317    8.3406 C   0  0  0  0  0  0  0  0  0  0  0  0
  -10.1308   -5.1244    7.7264 C   0  0  0  0  0  0  0  0  0  0  0  0
  -11.5244   -5.0399    7.4565 C   0  0  0  0  0  0  0  0  0  0  0  0
  -12.2451   -3.8638    7.7983 C   0  0  0  0  0  0  0  0  0  0  0  0
  -11.5652   -2.7608    8.4034 C   0  0  0  0  0  0  0  0  0  0  0  0
  -10.1865   -2.8428    8.6718 C   0  0  0  0  0  0  0  0  0  0  0  0
  1  6  1  0  0  0  0
  2  4  1  0  0  0  0
  3  7  1  0  0  0  0
  4  5  1  0  0  0  0
  6  2  1  0  0  0  0
  7  8  1  0  0  0  0
  8  9  1  0  0  0  0
  9 10  1  0  0  0  0
 10 11  1  0  0  0  0
 10 12  1  0  0  0  0
 11 13  1  0  0  0  0
 13 15  1  0  0  0  0
 14 12  1  0  0  0  0
 15 14  1  0  0  0  0
 16 18  2  0  0  0  0
 16 22  1  0  0  0  0
 17 23  1  0  0  0  0
 17 29  1  0  0  0  0
 18 19  1  0  0  0  0
 18 26  1  0  0  0  0
 19 20  2  0  0  0  0
 20  3  1  0  0  0  0
 20 21  1  0  0  0  0
 21  5  1  0  0  0  0
 21 22  2  0  0  0  0
 23 24  2  0  0  0  0
 24 30  1  0  0  0  0
 25 26  2  0  0  0  0
 25 30  1  0  0  0  0
 26 27  1  0  0  0  0
 27 28  2  0  0  0  0
 28 29  1  0  0  0  0
 29 30  2  0  0  0  0
M  END
>  <CHROM.1>
84.14109749,50.69719550,-79.25968497,121.68632982,-80.91453468,119.90534396
-165.80515809,-167.61208984,-96.05937249,35.58456666,113.31676238,-9.41345772
-6.43917999,8.48186354,-0.07548354,1.11997041,-0.90256913

>  <Name>
1uts_lig

>  <RI>
0

>  <Rbt.Current_Directory>
/home/itssahil/PROJECTS/Mol_Feturizer/New_Systems/rnas/1uts

>  <Rbt.Executable>
rbdock ($Id: //depot/dev/client3/rdock/2013.1/src/exe/rbdock.cxx#4 $)

>  <Rbt.Library>
libRbt.so (2013.1, Build901 2013/11/27)

>  <Rbt.Parameter_File>
/export/apps/rDock/src/rDock_2013.1_src/data/scripts/dock_solv.prm

>  <Rbt.Receptor>
prm/blind_docking_100.prm

>  <SCORE>
-22.9855

>  <SCORE.INTER>
-29.8896

>  <SCORE.INTER.CONST>
1

>  <SCORE.INTER.POLAR>
-3.94939

>  <SCORE.INTER.ROT>
10

>  <SCORE.INTER.SOLV>
9.83067

>  <SCORE.INTER.VDW>
-20.3054

>  <SCORE.INTER.norm>
-0.996322

>  <SCORE.INTRA>
4.74371

>  <SCORE.INTRA.DIHEDRAL>
7.21898

>  <SCORE.INTRA.DIHEDRAL.0>
18.0451

>  <SCORE.INTRA.POLAR>
0.0032138

>  <SCORE.INTRA.POLAR.0>
-0.196815

>  <SCORE.INTRA.REPUL>
0

>  <SCORE.INTRA.REPUL.0>
0

>  <SCORE.INTRA.SOLV>
0.773717

>  <SCORE.INTRA.SOLV.lig_0>
-14.7906

>  <SCORE.INTRA.VDW>
0.736435

>  <SCORE.INTRA.VDW.0>
-0.411701

>  <SCORE.INTRA.norm>
0.158124

>  <SCORE.RESTR>
2.16039

>  <SCORE.RESTR.CAVITY>
2.16039

>  <SCORE.RESTR.norm>
0.072013

>  <SCORE.SYSTEM>
0

>  <SCORE.SYSTEM.CONST>
0

>  <SCORE.SYSTEM.DIHEDRAL>
0

>  <SCORE.SYSTEM.SOLV>
0

>  <SCORE.SYSTEM.norm>
0

>  <SCORE.heavy>
30

>  <SCORE.norm>
-0.766185

>  <RMSD>
17.090

$$$$
1uts_lig
 OpenBabel11021811413D
libRbt.so/2013.1/901 2013/11/27
 30 33  0  0  0  0  0  0  0  0999 V2000
  -11.8166   -1.1804    9.8554 N   0  0  0  0  0  0  0  0  0  0  0  0
  -10.3470   -3.0386    9.2036 C   0  0  0  0  0  0  0  0  0  0  0  0
   -8.8705   -7.1584    8.7729 C   0  0  0  0  0  0  0  0  0  0  0  0
  -10.2952   -4.3806    8.4677 C   0  0  0  0  0  0  0  0  0  0  0  0
  -11.1467   -5.3231    9.1356 O   0  0  0  0  0  0  0  0  0  0  0  0
  -11.7777   -2.4974    9.1805 C   0  0  0  0  0  0  0  0  0  0  0  0
   -9.9988   -7.5645    7.9046 N   0  0  0  0  0  0  0  0  0  0  0  0
   -9.9123   -9.0213    7.6197 C   0  0  0  0  0  0  0  0  0  0  0  0
   -8.5489   -9.3485    7.0034 C   0  0  0  0  0  0  0  0  0  0  0  0
   -8.4254   -8.6712    5.6931 N   0  0  0  0  0  0  0  0  0  0  0  0
   -8.4487   -9.6927    4.6068 C   0  0  0  0  0  0  0  0  0  0  0  0
   -7.1512   -7.8994    5.6539 C   0  0  0  0  0  0  0  0  0  0  0  0
   -8.3167   -8.9932    3.2443 C   0  0  0  0  0  0  0  0  0  0  0  0
   -7.0161   -7.2015    4.2886 C   0  0  0  0  0  0  0  0  0  0  0  0
   -7.0419   -8.2220    3.2041 N   0  0  0  0  0  0  0  0  0  0  0  0
  -10.3113   -6.0087   12.7500 C   0  0  0  0  0  0  0  0  0  0  0  0
   -6.6008   -8.8421   17.2007 N   0  0  0  0  0  0  0  0  0  0  0  0
   -9.2258   -6.9075   12.6188 C   0  0  0  0  0  0  0  0  0  0  0  0
   -8.7642   -7.2762   11.3271 C   0  0  0  0  0  0  0  0  0  0  0  0
   -9.3870   -6.7430   10.1653 C   0  0  0  0  0  0  0  0  0  0  0  0
  -10.4920   -5.8496   10.2998 C   0  0  0  0  0  0  0  0  0  0  0  0
  -10.9477   -5.4817   11.5953 C   0  0  0  0  0  0  0  0  0  0  0  0
   -5.3660   -8.1895   16.9835 C   0  0  0  0  0  0  0  0  0  0  0  0
   -5.3938   -7.4418   15.7845 C   0  0  0  0  0  0  0  0  0  0  0  0
   -7.2690   -7.0998   14.0725 C   0  0  0  0  0  0  0  0  0  0  0  0
   -8.6177   -7.4302   13.7688 C   0  0  0  0  0  0  0  0  0  0  0  0
   -9.3506   -8.2857   14.6366 C   0  0  0  0  0  0  0  0  0  0  0  0
   -8.7360   -8.8074   15.8069 C   0  0  0  0  0  0  0  0  0  0  0  0
   -7.3834   -8.4620   16.1170 C   0  0  0  0  0  0  0  0  0  0  0  0
   -6.6565   -7.6163   15.2593 C   0  0  0  0  0  0  0  0  0  0  0  0
  1  6  1  0  0  0  0
  2  4  1  0  0  0  0
  3  7  1  0  0  0  0
  4  5  1  0  0  0  0
  6  2  1  0  0  0  0
  7  8  1  0  0  0  0
  8  9  1  0  0  0  0
  9 10  1  0  0  0  0
 10 11  1  0  0  0  0
 10 12  1  0  0  0  0
 11 13  1  0  0  0  0
 13 15  1  0  0  0  0
 14 12  1  0  0  0  0
 15 14  1  0  0  0  0
 16 18  2  0  0  0  0
 16 22  1  0  0  0  0
 17 23  1  0  0  0  0
 17 29  1  0  0  0  0
 18 19  1  0  0  0  0
 18 26  1  0  0  0  0
 19 20  2  0  0  0  0
 20  3  1  0  0  0  0
 20 21  1  0  0  0  0
 21  5  1  0  0  0  0
 21 22  2  0  0  0  0
 23 24  2  0  0  0  0
 24 30  1  0  0  0  0
 25 26  2  0  0  0  0
 25 30  1  0  0  0  0
 26 27  1  0  0  0  0
 27 28  2  0  0  0  0
 28 29  1  0  0  0  0
 29 30  2  0  0  0  0
M  END
>  <CHROM.1>
75.43639950,-61.33274202,-112.59373785,-79.03840040,-178.23873727,-55.82738176
-64.19650685,-110.76689220,-114.60052660,131.31615079,-70.63525533,-8.82934151
-6.97315026,10.20484449,1.75804178,0.93747132,-1.70842092

>  <Name>
1uts_lig

>  <RI>
0

>  <Rbt.Current_Directory>
/home/itssahil/PROJECTS/Mol_Feturizer/New_Systems/rnas/1uts

>  <Rbt.Executable>
rbdock ($Id: //depot/dev/client3/rdock/2013.1/src/exe/rbdock.cxx#4 $)

>  <Rbt.Library>
libRbt.so (2013.1, Build901 2013/11/27)

>  <Rbt.Parameter_File>
/export/apps/rDock/src/rDock_2013.1_src/data/scripts/dock_solv.prm

>  <Rbt.Receptor>
prm/blind_docking_80.prm

>  <SCORE>
-25.8074

>  <SCORE.INTER>
-28.1036

>  <SCORE.INTER.CONST>
1

>  <SCORE.INTER.POLAR>
-2.50394

>  <SCORE.INTER.ROT>
10

>  <SCORE.INTER.SOLV>
8.53903

>  <SCORE.INTER.VDW>
-23.5023

>  <SCORE.INTER.norm>
-0.936785

>  <SCORE.INTRA>
1.9546

>  <SCORE.INTRA.DIHEDRAL>
0.112552

>  <SCORE.INTRA.DIHEDRAL.0>
18.0451

>  <SCORE.INTRA.POLAR>
0.0265162

>  <SCORE.INTRA.POLAR.0>
-0.196815

>  <SCORE.INTRA.REPUL>
0

>  <SCORE.INTRA.REPUL.0>
0

>  <SCORE.INTRA.SOLV>
0.00615036

>  <SCORE.INTRA.SOLV.lig_0>
-14.7906

>  <SCORE.INTRA.VDW>
1.8051

>  <SCORE.INTRA.VDW.0>
-0.411701

>  <SCORE.INTRA.norm>
0.0651535

>  <SCORE.RESTR>
0.341592

>  <SCORE.RESTR.CAVITY>
0.341592

>  <SCORE.RESTR.norm>
0.0113864

>  <SCORE.SYSTEM>
0

>  <SCORE.SYSTEM.CONST>
0

>  <SCORE.SYSTEM.DIHEDRAL>
0

>  <SCORE.SYSTEM.SOLV>
0

>  <SCORE.SYSTEM.norm>
0

>  <SCORE.heavy>
30

>  <SCORE.norm>
-0.860245

>  <RMSD>
17.099

$$$$
1uts_lig
 OpenBabel11021811413D
libRbt.so/2013.1/901 2013/11/27
 30 33  0  0  0  0  0  0  0  0999 V2000
   -4.6821  -11.6608    4.3622 N   0  0  0  0  0  0  0  0  0  0  0  0
   -6.9853  -10.8067    4.3056 C   0  0  0  0  0  0  0  0  0  0  0  0
   -7.4671   -8.7812    7.4448 C   0  0  0  0  0  0  0  0  0  0  0  0
   -7.9303   -9.7465    4.8785 C   0  0  0  0  0  0  0  0  0  0  0  0
   -7.4556   -8.4409    4.5181 O   0  0  0  0  0  0  0  0  0  0  0  0
   -5.6042  -10.6614    4.9473 C   0  0  0  0  0  0  0  0  0  0  0  0
   -7.3213   -8.5253    8.8958 N   0  0  0  0  0  0  0  0  0  0  0  0
   -8.3431   -9.3021    9.6465 C   0  0  0  0  0  0  0  0  0  0  0  0
   -9.7395   -8.7535    9.3390 C   0  0  0  0  0  0  0  0  0  0  0  0
   -9.9300   -7.4670   10.0459 N   0  0  0  0  0  0  0  0  0  0  0  0
   -9.9724   -7.7145   11.5158 C   0  0  0  0  0  0  0  0  0  0  0  0
  -11.1995   -6.8349    9.5880 C   0  0  0  0  0  0  0  0  0  0  0  0
  -10.1741   -6.3808   12.2533 C   0  0  0  0  0  0  0  0  0  0  0  0
  -11.4044   -5.5010   10.3285 C   0  0  0  0  0  0  0  0  0  0  0  0
  -11.4442   -5.7487   11.7967 N   0  0  0  0  0  0  0  0  0  0  0  0
   -9.3339   -5.3217    5.5052 C   0  0  0  0  0  0  0  0  0  0  0  0
  -11.7493   -1.4574   10.0761 N   0  0  0  0  0  0  0  0  0  0  0  0
   -9.3769   -5.4571    6.9135 C   0  0  0  0  0  0  0  0  0  0  0  0
   -8.7704   -6.5808    7.5355 C   0  0  0  0  0  0  0  0  0  0  0  0
   -8.1174   -7.5687    6.7484 C   0  0  0  0  0  0  0  0  0  0  0  0
   -8.0893   -7.4386    5.3274 C   0  0  0  0  0  0  0  0  0  0  0  0
   -8.6954   -6.3100    4.7105 C   0  0  0  0  0  0  0  0  0  0  0  0
  -10.5915   -1.1002   10.8039 C   0  0  0  0  0  0  0  0  0  0  0  0
   -9.4872   -1.8933   10.4176 C   0  0  0  0  0  0  0  0  0  0  0  0
   -9.2978   -3.7520    8.6644 C   0  0  0  0  0  0  0  0  0  0  0  0
  -10.0238   -4.4797    7.6828 C   0  0  0  0  0  0  0  0  0  0  0  0
  -11.4049   -4.2099    7.4779 C   0  0  0  0  0  0  0  0  0  0  0  0
  -12.0573   -3.2126    8.2520 C   0  0  0  0  0  0  0  0  0  0  0  0
  -11.3208   -2.4725    9.2291 C   0  0  0  0  0  0  0  0  0  0  0  0
   -9.9545   -2.7384    9.4337 C   0  0  0  0  0  0  0  0  0  0  0  0
  1  6  1  0  0  0  0
  2  4  1  0  0  0  0
  3  7  1  0  0  0  0
  4  5  1  0  0  0  0
  6  2  1  0  0  0  0
  7  8  1  0  0  0  0
  8  9  1  0  0  0  0
  9 10  1  0  0  0  0
 10 11  1  0  0  0  0
 10 12  1  0  0  0  0
 11 13  1  0  0  0  0
 13 15  1  0  0  0  0
 14 12  1  0  0  0  0
 15 14  1  0  0  0  0
 16 18  2  0  0  0  0
 16 22  1  0  0  0  0
 17 23  1  0  0  0  0
 17 29  1  0  0  0  0
 18 19  1  0  0  0  0
 18 26  1  0  0  0  0
 19 20  2  0  0  0  0
 20  3  1  0  0  0  0
 20 21  1  0  0  0  0
 21  5  1  0  0  0  0
 21 22  2  0  0  0  0
 23 24  2  0  0  0  0
 24 30  1  0  0  0  0
 25 26  2  0  0  0  0
 25 30  1  0  0  0  0
 26 27  1  0  0  0  0
 27 28  2  0  0  0  0
 28 29  1  0  0  0  0
 29 30  2  0  0  0  0
M  END
>  <CHROM.1>
28.42637935,63.93501767,105.21465114,-164.23409462,-178.31450745,-67.54072646
-74.51001788,-67.45650746,-119.93481962,-15.37653470,50.40396977,-9.20978395
-6.47197927,8.09569920,0.05951742,-1.08978881,2.27478414

>  <Name>
1uts_lig

>  <RI>
0

>  <Rbt.Current_Directory>
/home/itssahil/PROJECTS/Mol_Feturizer/New_Systems/rnas/1uts

>  <Rbt.Executable>
rbdock ($Id: //depot/dev/client3/rdock/2013.1/src/exe/rbdock.cxx#4 $)

>  <Rbt.Library>
libRbt.so (2013.1, Build901 2013/11/27)

>  <Rbt.Parameter_File>
/export/apps/rDock/src/rDock_2013.1_src/data/scripts/dock_solv.prm

>  <Rbt.Receptor>
prm/blind_docking_60.prm

>  <SCORE>
-26.5761

>  <SCORE.INTER>
-32.9469

>  <SCORE.INTER.CONST>
1

>  <SCORE.INTER.POLAR>
-1.93408

>  <SCORE.INTER.ROT>
10

>  <SCORE.INTER.SOLV>
9.56139

>  <SCORE.INTER.VDW>
-28.9714

>  <SCORE.INTER.norm>
-1.09823

>  <SCORE.INTRA>
4.92798

>  <SCORE.INTRA.DIHEDRAL>
-3.54961

>  <SCORE.INTRA.DIHEDRAL.0>
18.0451

>  <SCORE.INTRA.POLAR>
0.196815

>  <SCORE.INTRA.POLAR.0>
-0.196815

>  <SCORE.INTRA.REPUL>
0.000939948

>  <SCORE.INTRA.REPUL.0>
0

>  <SCORE.INTRA.SOLV>
0.196031

>  <SCORE.INTRA.SOLV.lig_0>
-14.7906

>  <SCORE.INTRA.VDW>
5.93089

>  <SCORE.INTRA.VDW.0>
-0.411701

>  <SCORE.INTRA.norm>
0.164266

>  <SCORE.RESTR>
1.44282

>  <SCORE.RESTR.CAVITY>
1.44282

>  <SCORE.RESTR.norm>
0.048094

>  <SCORE.SYSTEM>
0

>  <SCORE.SYSTEM.CONST>
0

>  <SCORE.SYSTEM.DIHEDRAL>
0

>  <SCORE.SYSTEM.SOLV>
0

>  <SCORE.SYSTEM.norm>
0

>  <SCORE.heavy>
30

>  <SCORE.norm>
-0.885869

>  <RMSD>
17.100

$$$$
1uts_lig
 OpenBabel11021811413D
libRbt.so/2013.1/901 2013/11/27
 30 33  0  0  0  0  0  0  0  0999 V2000
   -4.9615  -12.2418    4.6640 N   0  0  0  0  0  0  0  0  0  0  0  0
   -7.0944  -11.1069    4.2168 C   0  0  0  0  0  0  0  0  0  0  0  0
   -9.3198   -9.9193    8.7781 C   0  0  0  0  0  0  0  0  0  0  0  0
   -7.1942   -9.7732    4.9627 C   0  0  0  0  0  0  0  0  0  0  0  0
   -7.9011   -9.9692    6.1962 O   0  0  0  0  0  0  0  0  0  0  0  0
   -5.6570  -11.3193    3.7384 C   0  0  0  0  0  0  0  0  0  0  0  0
   -9.0653   -9.5828   10.1972 N   0  0  0  0  0  0  0  0  0  0  0  0
  -10.1692   -8.7324   10.7161 C   0  0  0  0  0  0  0  0  0  0  0  0
  -10.5327   -9.1671   12.1390 C   0  0  0  0  0  0  0  0  0  0  0  0
  -10.0565   -8.1488   13.1019 N   0  0  0  0  0  0  0  0  0  0  0  0
   -9.9901   -8.7522   14.4640 C   0  0  0  0  0  0  0  0  0  0  0  0
  -10.9888   -6.9862   13.0930 C   0  0  0  0  0  0  0  0  0  0  0  0
   -9.4995   -7.6962   15.4677 C   0  0  0  0  0  0  0  0  0  0  0  0
  -10.5006   -5.9296   14.1004 C   0  0  0  0  0  0  0  0  0  0  0  0
  -10.4322   -6.5337   15.4601 N   0  0  0  0  0  0  0  0  0  0  0  0
   -8.9078   -6.3347    6.2891 C   0  0  0  0  0  0  0  0  0  0  0  0
  -11.6662   -1.3236    9.2228 N   0  0  0  0  0  0  0  0  0  0  0  0
   -9.6127   -6.2727    7.5149 C   0  0  0  0  0  0  0  0  0  0  0  0
   -9.7429   -7.4381    8.3164 C   0  0  0  0  0  0  0  0  0  0  0  0
   -9.1647   -8.6662    7.8929 C   0  0  0  0  0  0  0  0  0  0  0  0
   -8.4683   -8.7303    6.6487 C   0  0  0  0  0  0  0  0  0  0  0  0
   -8.3385   -7.5598    5.8520 C   0  0  0  0  0  0  0  0  0  0  0  0
  -10.4997   -0.8666    9.8771 C   0  0  0  0  0  0  0  0  0  0  0  0
   -9.4688   -1.8306    9.8037 C   0  0  0  0  0  0  0  0  0  0  0  0
   -9.4147   -4.1365    8.6884 C   0  0  0  0  0  0  0  0  0  0  0  0
  -10.1813   -5.0586    7.9252 C   0  0  0  0  0  0  0  0  0  0  0  0
  -11.5227   -4.7445    7.5729 C   0  0  0  0  0  0  0  0  0  0  0  0
  -12.0949   -3.5095    7.9815 C   0  0  0  0  0  0  0  0  0  0  0  0
  -11.3166   -2.5779    8.7374 C   0  0  0  0  0  0  0  0  0  0  0  0
   -9.9894   -2.8872    9.0874 C   0  0  0  0  0  0  0  0  0  0  0  0
  1  6  1  0  0  0  0
  2  4  1  0  0  0  0
  3  7  1  0  0  0  0
  4  5  1  0  0  0  0
  6  2  1  0  0  0  0
  7  8  1  0  0  0  0
  8  9  1  0  0  0  0
  9 10  1  0  0  0  0
 10 11  1  0  0  0  0
 10 12  1  0  0  0  0
 11 13  1  0  0  0  0
 13 15  1  0  0  0  0
 14 12  1  0  0  0  0
 15 14  1  0  0  0  0
 16 18  2  0  0  0  0
 16 22  1  0  0  0  0
 17 23  1  0  0  0  0
 17 29  1  0  0  0  0
 18 19  1  0  0  0  0
 18 26  1  0  0  0  0
 19 20  2  0  0  0  0
 20  3  1  0  0  0  0
 20 21  1  0  0  0  0
 21  5  1  0  0  0  0
 21 22  2  0  0  0  0
 23 24  2  0  0  0  0
 24 30  1  0  0  0  0
 25 26  2  0  0  0  0
 25 30  1  0  0  0  0
 26 27  1  0  0  0  0
 27 28  2  0  0  0  0
 28 29  1  0  0  0  0
 29 30  2  0  0  0  0
M  END
>  <CHROM.1>
-78.80515454,-132.59627001,69.64761203,-157.20205912,100.21657489,139.25029876
107.64981344,-161.26820692,-88.33174391,-44.53344015,-176.95285302,-9.40515304
-7.06251862,9.14817455,-0.26335998,-1.16291065,2.16609968

>  <Name>
1uts_lig

>  <RI>
0

>  <Rbt.Current_Directory>
/home/itssahil/PROJECTS/Mol_Feturizer/New_Systems/rnas/1uts

>  <Rbt.Executable>
rbdock ($Id: //depot/dev/client3/rdock/2013.1/src/exe/rbdock.cxx#4 $)

>  <Rbt.Library>
libRbt.so (2013.1, Build901 2013/11/27)

>  <Rbt.Parameter_File>
/export/apps/rDock/src/rDock_2013.1_src/data/scripts/dock_solv.prm

>  <Rbt.Receptor>
prm/blind_docking_100.prm

>  <SCORE>
-15.1264

>  <SCORE.INTER>
-32.014

>  <SCORE.INTER.CONST>
1

>  <SCORE.INTER.POLAR>
-2.96379

>  <SCORE.INTER.ROT>
10

>  <SCORE.INTER.SOLV>
10.0302

>  <SCORE.INTER.VDW>
-25.0734

>  <SCORE.INTER.norm>
-1.06713

>  <SCORE.INTRA>
10.7807

>  <SCORE.INTRA.DIHEDRAL>
8.38341

>  <SCORE.INTRA.DIHEDRAL.0>
18.0451

>  <SCORE.INTRA.POLAR>
0.196815

>  <SCORE.INTRA.POLAR.0>
-0.196815

>  <SCORE.INTRA.REPUL>
0

>  <SCORE.INTRA.REPUL.0>
0

>  <SCORE.INTRA.SOLV>
-0.473771

>  <SCORE.INTRA.SOLV.lig_0>
-14.7906

>  <SCORE.INTRA.VDW>
6.15675

>  <SCORE.INTRA.VDW.0>
-0.411701

>  <SCORE.INTRA.norm>
0.359358

>  <SCORE.RESTR>
6.10685

>  <SCORE.RESTR.CAVITY>
6.10685

>  <SCORE.RESTR.norm>
0.203562

>  <SCORE.SYSTEM>
0

>  <SCORE.SYSTEM.CONST>
0

>  <SCORE.SYSTEM.DIHEDRAL>
0

>  <SCORE.SYSTEM.SOLV>
0

>  <SCORE.SYSTEM.norm>
0

>  <SCORE.heavy>
30

>  <SCORE.norm>
-0.504214

>  <RMSD>
17.104

$$$$
1uts_lig
 OpenBabel11021811413D
libRbt.so/2013.1/901 2013/11/27
 30 33  0  0  0  0  0  0  0  0999 V2000
   -5.0047  -10.8721    4.9355 N   0  0  0  0  0  0  0  0  0  0  0  0
   -6.8532   -9.6996    3.8196 C   0  0  0  0  0  0  0  0  0  0  0  0
   -9.3679   -9.6543    8.4138 C   0  0  0  0  0  0  0  0  0  0  0  0
   -8.3241   -9.4801    4.1849 C   0  0  0  0  0  0  0  0  0  0  0  0
   -8.4933   -9.6472    5.6003 O   0  0  0  0  0  0  0  0  0  0  0  0
   -6.3753  -11.0320    4.3997 C   0  0  0  0  0  0  0  0  0  0  0  0
   -8.5908   -9.4867    9.6629 N   0  0  0  0  0  0  0  0  0  0  0  0
   -9.3793   -8.6907   10.6404 C   0  0  0  0  0  0  0  0  0  0  0  0
   -8.7091   -7.3316   10.8620 C   0  0  0  0  0  0  0  0  0  0  0  0
   -9.6355   -6.4390   11.5940 N   0  0  0  0  0  0  0  0  0  0  0  0
  -10.9557   -6.4243   10.9008 C   0  0  0  0  0  0  0  0  0  0  0  0
   -9.0602   -5.0653   11.6462 C   0  0  0  0  0  0  0  0  0  0  0  0
  -11.9196   -5.4950   11.6562 C   0  0  0  0  0  0  0  0  0  0  0  0
  -10.0262   -4.1330   12.3992 C   0  0  0  0  0  0  0  0  0  0  0  0
  -11.3453   -4.1207   11.7076 N   0  0  0  0  0  0  0  0  0  0  0  0
   -9.2188   -5.9715    6.0411 C   0  0  0  0  0  0  0  0  0  0  0  0
  -11.4819   -1.0986    9.6045 N   0  0  0  0  0  0  0  0  0  0  0  0
   -9.6622   -5.9349    7.3848 C   0  0  0  0  0  0  0  0  0  0  0  0
   -9.7085   -7.1320    8.1478 C   0  0  0  0  0  0  0  0  0  0  0  0
   -9.3079   -8.3667    7.5674 C   0  0  0  0  0  0  0  0  0  0  0  0
   -8.8767   -8.4040    6.2073 C   0  0  0  0  0  0  0  0  0  0  0  0
   -8.8295   -7.2020    5.4493 C   0  0  0  0  0  0  0  0  0  0  0  0
  -12.8149   -1.1848    9.1425 C   0  0  0  0  0  0  0  0  0  0  0  0
  -13.0100   -2.3577    8.3785 C   0  0  0  0  0  0  0  0  0  0  0  0
  -11.3897   -4.2499    7.7800 C   0  0  0  0  0  0  0  0  0  0  0  0
  -10.0569   -4.7140    7.9498 C   0  0  0  0  0  0  0  0  0  0  0  0
   -9.1274   -3.9417    8.6993 C   0  0  0  0  0  0  0  0  0  0  0  0
   -9.5314   -2.7088    9.2793 C   0  0  0  0  0  0  0  0  0  0  0  0
  -10.8767   -2.2513    9.1184 C   0  0  0  0  0  0  0  0  0  0  0  0
  -11.7975   -3.0138    8.3767 C   0  0  0  0  0  0  0  0  0  0  0  0
  1  6  1  0  0  0  0
  2  4  1  0  0  0  0
  3  7  1  0  0  0  0
  4  5  1  0  0  0  0
  6  2  1  0  0  0  0
  7  8  1  0  0  0  0
  8  9  1  0  0  0  0
  9 10  1  0  0  0  0
 10 11  1  0  0  0  0
 10 12  1  0  0  0  0
 11 13  1  0  0  0  0
 13 15  1  0  0  0  0
 14 12  1  0  0  0  0
 15 14  1  0  0  0  0
 16 18  2  0  0  0  0
 16 22  1  0  0  0  0
 17 23  1  0  0  0  0
 17 29  1  0  0  0  0
 18 19  1  0  0  0  0
 18 26  1  0  0  0  0
 19 20  2  0  0  0  0
 20  3  1  0  0  0  0
 20 21  1  0  0  0  0
 21  5  1  0  0  0  0
 21 22  2  0  0  0  0
 23 24  2  0  0  0  0
 24 30  1  0  0  0  0
 25 26  2  0  0  0  0
 25 30  1  0  0  0  0
 26 27  1  0  0  0  0
 27 28  2  0  0  0  0
 28 29  1  0  0  0  0
 29 30  2  0  0  0  0
M  END
>  <CHROM.1>
-161.81879147,51.82432743,78.04404446,114.45417768,-139.54727514,-112.44691356
167.78210983,-51.35392352,85.58074773,-55.28052268,169.99823255,-9.59256898
-6.30437092,8.41171891,-0.29636236,-1.10163636,1.85547794

>  <Name>
1uts_lig

>  <RI>
0

>  <Rbt.Current_Directory>
/home/itssahil/PROJECTS/Mol_Feturizer/New_Systems/rnas/1uts

>  <Rbt.Executable>
rbdock ($Id: //depot/dev/client3/rdock/2013.1/src/exe/rbdock.cxx#4 $)

>  <Rbt.Library>
libRbt.so (2013.1, Build901 2013/11/27)

>  <Rbt.Parameter_File>
/export/apps/rDock/src/rDock_2013.1_src/data/scripts/dock_solv.prm

>  <Rbt.Receptor>
prm/blind_docking_60.prm

>  <SCORE>
-4.68988

>  <SCORE.INTER>
-17.6866

>  <SCORE.INTER.CONST>
1

>  <SCORE.INTER.POLAR>
-1.51819

>  <SCORE.INTER.ROT>
10

>  <SCORE.INTER.SOLV>
8.99424

>  <SCORE.INTER.VDW>
-19.9952

>  <SCORE.INTER.norm>
-0.589553

>  <SCORE.INTRA>
8.88781

>  <SCORE.INTRA.DIHEDRAL>
4.74195

>  <SCORE.INTRA.DIHEDRAL.0>
18.0451

>  <SCORE.INTRA.POLAR>
0.196815

>  <SCORE.INTRA.POLAR.0>
-0.196815

>  <SCORE.INTRA.REPUL>
0

>  <SCORE.INTRA.REPUL.0>
0

>  <SCORE.INTRA.SOLV>
0.584914

>  <SCORE.INTRA.SOLV.lig_0>
-14.7906

>  <SCORE.INTRA.VDW>
5.55521

>  <SCORE.INTRA.VDW.0>
-0.411701

>  <SCORE.INTRA.norm>
0.29626

>  <SCORE.RESTR>
4.10891

>  <SCORE.RESTR.CAVITY>
4.10891

>  <SCORE.RESTR.norm>
0.136964

>  <SCORE.SYSTEM>
0

>  <SCORE.SYSTEM.CONST>
0

>  <SCORE.SYSTEM.DIHEDRAL>
0

>  <SCORE.SYSTEM.SOLV>
0

>  <SCORE.SYSTEM.norm>
0

>  <SCORE.heavy>
30

>  <SCORE.norm>
-0.156329

>  <RMSD>
17.115

$$$$
1uts_lig
 OpenBabel11021811413D
libRbt.so/2013.1/901 2013/11/27
 30 33  0  0  0  0  0  0  0  0999 V2000
   -4.5921  -12.2896    4.7390 N   0  0  0  0  0  0  0  0  0  0  0  0
   -6.6263  -11.0762    4.0854 C   0  0  0  0  0  0  0  0  0  0  0  0
   -7.0706   -8.9208    7.3992 C   0  0  0  0  0  0  0  0  0  0  0  0
   -7.5970  -10.0055    4.5920 C   0  0  0  0  0  0  0  0  0  0  0  0
   -6.9894   -8.7118    4.4614 O   0  0  0  0  0  0  0  0  0  0  0  0
   -5.3299  -11.0157    4.8953 C   0  0  0  0  0  0  0  0  0  0  0  0
   -7.3112   -8.7842    8.8537 N   0  0  0  0  0  0  0  0  0  0  0  0
   -8.5536   -9.5113    9.2263 C   0  0  0  0  0  0  0  0  0  0  0  0
   -9.7227   -8.5262    9.3172 C   0  0  0  0  0  0  0  0  0  0  0  0
   -9.5877   -7.7137   10.5471 N   0  0  0  0  0  0  0  0  0  0  0  0
  -10.2905   -8.3993   11.6696 C   0  0  0  0  0  0  0  0  0  0  0  0
  -10.1735   -6.3634   10.3141 C   0  0  0  0  0  0  0  0  0  0  0  0
  -10.1557   -7.5563   12.9481 C   0  0  0  0  0  0  0  0  0  0  0  0
  -10.0424   -5.5196   11.5948 C   0  0  0  0  0  0  0  0  0  0  0  0
  -10.7425   -6.2060   12.7160 N   0  0  0  0  0  0  0  0  0  0  0  0
   -9.1611   -5.7279    5.2430 C   0  0  0  0  0  0  0  0  0  0  0  0
  -12.0550   -1.8685    9.5211 N   0  0  0  0  0  0  0  0  0  0  0  0
   -9.2400   -5.8035    6.6542 C   0  0  0  0  0  0  0  0  0  0  0  0
   -8.5605   -6.8409    7.3466 C   0  0  0  0  0  0  0  0  0  0  0  0
   -7.7987   -7.8021    6.6271 C   0  0  0  0  0  0  0  0  0  0  0  0
   -7.7339   -7.7336    5.2029 C   0  0  0  0  0  0  0  0  0  0  0  0
   -8.4136   -6.6911    4.5154 C   0  0  0  0  0  0  0  0  0  0  0  0
  -10.9319   -1.2435   10.1092 C   0  0  0  0  0  0  0  0  0  0  0  0
   -9.7355   -1.8929    9.7287 C   0  0  0  0  0  0  0  0  0  0  0  0
   -9.3428   -3.9021    8.1884 C   0  0  0  0  0  0  0  0  0  0  0  0
   -9.9942   -4.8531    7.3566 C   0  0  0  0  0  0  0  0  0  0  0  0
  -11.4108   -4.8342    7.2331 C   0  0  0  0  0  0  0  0  0  0  0  0
  -12.1734   -3.8644    7.9384 C   0  0  0  0  0  0  0  0  0  0  0  0
  -11.5141   -2.9003    8.7635 C   0  0  0  0  0  0  0  0  0  0  0  0
  -10.1128   -2.9178    8.8874 C   0  0  0  0  0  0  0  0  0  0  0  0
  1  6  1  0  0  0  0
  2  4  1  0  0  0  0
  3  7  1  0  0  0  0
  4  5  1  0  0  0  0
  6  2  1  0  0  0  0
  7  8  1  0  0  0  0
  8  9  1  0  0  0  0
  9 10  1  0  0  0  0
 10 11  1  0  0  0  0
 10 12  1  0  0  0  0
 11 13  1  0  0  0  0
 13 15  1  0  0  0  0
 14 12  1  0  0  0  0
 15 14  1  0  0  0  0
 16 18  2  0  0  0  0
 16 22  1  0  0  0  0
 17 23  1  0  0  0  0
 17 29  1  0  0  0  0
 18 19  1  0  0  0  0
 18 26  1  0  0  0  0
 19 20  2  0  0  0  0
 20  3  1  0  0  0  0
 20 21  1  0  0  0  0
 21  5  1  0  0  0  0
 21 22  2  0  0  0  0
 23 24  2  0  0  0  0
 24 30  1  0  0  0  0
 25 26  2  0  0  0  0
 25 30  1  0  0  0  0
 26 27  1  0  0  0  0
 27 28  2  0  0  0  0
 28 29  1  0  0  0  0
 29 30  2  0  0  0  0
M  END
>  <CHROM.1>
69.80869390,59.05488081,87.94775937,-166.64889367,161.17459163,-98.29722086
-73.71208373,-89.92800856,-111.44512302,-0.02499439,65.97141348,-9.03663481
-6.78142529,8.05407117,-0.08038424,-1.06652915,2.12985657

>  <Name>
1uts_lig

>  <RI>
0

>  <Rbt.Current_Directory>
/home/itssahil/PROJECTS/Mol_Feturizer/New_Systems/rnas/1uts

>  <Rbt.Executable>
rbdock ($Id: //depot/dev/client3/rdock/2013.1/src/exe/rbdock.cxx#4 $)

>  <Rbt.Library>
libRbt.so (2013.1, Build901 2013/11/27)

>  <Rbt.Parameter_File>
/export/apps/rDock/src/rDock_2013.1_src/data/scripts/dock_solv.prm

>  <Rbt.Receptor>
prm/blind_docking_60.prm

>  <SCORE>
-31.2485

>  <SCORE.INTER>
-35.2129

>  <SCORE.INTER.CONST>
1

>  <SCORE.INTER.POLAR>
-1.54901

>  <SCORE.INTER.ROT>
10

>  <SCORE.INTER.SOLV>
9.32169

>  <SCORE.INTER.VDW>
-31.6858

>  <SCORE.INTER.norm>
-1.17376

>  <SCORE.INTRA>
1.53051

>  <SCORE.INTRA.DIHEDRAL>
-0.180963

>  <SCORE.INTRA.DIHEDRAL.0>
18.0451

>  <SCORE.INTRA.POLAR>
0.196815

>  <SCORE.INTRA.POLAR.0>
-0.196815

>  <SCORE.INTRA.REPUL>
0

>  <SCORE.INTRA.REPUL.0>
0

>  <SCORE.INTRA.SOLV>
-0.160125

>  <SCORE.INTRA.SOLV.lig_0>
-14.7906

>  <SCORE.INTRA.VDW>
1.03189

>  <SCORE.INTRA.VDW.0>
-0.411701

>  <SCORE.INTRA.norm>
0.0510172

>  <SCORE.RESTR>
2.43386

>  <SCORE.RESTR.CAVITY>
2.43386

>  <SCORE.RESTR.norm>
0.0811287

>  <SCORE.SYSTEM>
0

>  <SCORE.SYSTEM.CONST>
0

>  <SCORE.SYSTEM.DIHEDRAL>
0

>  <SCORE.SYSTEM.SOLV>
0

>  <SCORE.SYSTEM.norm>
0

>  <SCORE.heavy>
30

>  <SCORE.norm>
-1.04162

>  <RMSD>
17.135

$$$$
1uts_lig
 OpenBabel11021811413D
libRbt.so/2013.1/901 2013/11/27
 30 33  0  0  0  0  0  0  0  0999 V2000
  -13.5533   -1.5940    9.2464 N   0  0  0  0  0  0  0  0  0  0  0  0
  -11.1302   -1.2185    9.4053 C   0  0  0  0  0  0  0  0  0  0  0  0
  -10.9969   -5.2296    7.2834 C   0  0  0  0  0  0  0  0  0  0  0  0
   -9.8050   -1.3720    8.6534 C   0  0  0  0  0  0  0  0  0  0  0  0
   -9.7508   -2.6704    8.0443 O   0  0  0  0  0  0  0  0  0  0  0  0
  -12.2909   -1.5716    8.4734 C   0  0  0  0  0  0  0  0  0  0  0  0
  -10.1811   -4.4945    6.2903 N   0  0  0  0  0  0  0  0  0  0  0  0
   -8.9827   -5.2989    5.9325 C   0  0  0  0  0  0  0  0  0  0  0  0
   -9.3864   -6.4402    4.9945 C   0  0  0  0  0  0  0  0  0  0  0  0
   -8.1712   -7.0491    4.4082 N   0  0  0  0  0  0  0  0  0  0  0  0
   -8.5706   -8.0599    3.3872 C   0  0  0  0  0  0  0  0  0  0  0  0
   -7.3692   -7.6899    5.4885 C   0  0  0  0  0  0  0  0  0  0  0  0
   -7.3110   -8.6973    2.7787 C   0  0  0  0  0  0  0  0  0  0  0  0
   -6.1094   -8.3318    4.8799 C   0  0  0  0  0  0  0  0  0  0  0  0
   -6.5090   -9.3395    3.8585 N   0  0  0  0  0  0  0  0  0  0  0  0
   -9.5677   -4.4669   11.3565 C   0  0  0  0  0  0  0  0  0  0  0  0
  -10.5920   -9.5054   15.1593 N   0  0  0  0  0  0  0  0  0  0  0  0
  -10.1771   -5.7035   11.0361 C   0  0  0  0  0  0  0  0  0  0  0  0
  -10.6384   -5.9440    9.7144 C   0  0  0  0  0  0  0  0  0  0  0  0
  -10.4872   -4.9476    8.7112 C   0  0  0  0  0  0  0  0  0  0  0  0
   -9.8872   -3.6951    9.0405 C   0  0  0  0  0  0  0  0  0  0  0  0
   -9.4245   -3.4612   10.3644 C   0  0  0  0  0  0  0  0  0  0  0  0
   -9.4353   -9.1168   15.8726 C   0  0  0  0  0  0  0  0  0  0  0  0
   -8.7759   -8.0490   15.2226 C   0  0  0  0  0  0  0  0  0  0  0  0
   -9.3692   -6.7765   13.0795 C   0  0  0  0  0  0  0  0  0  0  0  0
  -10.3240   -6.6805   12.0308 C   0  0  0  0  0  0  0  0  0  0  0  0
  -11.4313   -7.5720   11.9965 C   0  0  0  0  0  0  0  0  0  0  0  0
  -11.5840   -8.5559   13.0105 C   0  0  0  0  0  0  0  0  0  0  0  0
  -10.6294   -8.6409   14.0719 C   0  0  0  0  0  0  0  0  0  0  0  0
   -9.5329   -7.7601   14.1072 C   0  0  0  0  0  0  0  0  0  0  0  0
  1  6  1  0  0  0  0
  2  4  1  0  0  0  0
  3  7  1  0  0  0  0
  4  5  1  0  0  0  0
  6  2  1  0  0  0  0
  7  8  1  0  0  0  0
  8  9  1  0  0  0  0
  9 10  1  0  0  0  0
 10 11  1  0  0  0  0
 10 12  1  0  0  0  0
 11 13  1  0  0  0  0
 13 15  1  0  0  0  0
 14 12  1  0  0  0  0
 15 14  1  0  0  0  0
 16 18  2  0  0  0  0
 16 22  1  0  0  0  0
 17 23  1  0  0  0  0
 17 29  1  0  0  0  0
 18 19  1  0  0  0  0
 18 26  1  0  0  0  0
 19 20  2  0  0  0  0
 20  3  1  0  0  0  0
 20 21  1  0  0  0  0
 21  5  1  0  0  0  0
 21 22  2  0  0  0  0
 23 24  2  0  0  0  0
 24 30  1  0  0  0  0
 25 26  2  0  0  0  0
 25 30  1  0  0  0  0
 26 27  1  0  0  0  0
 27 28  2  0  0  0  0
 28 29  1  0  0  0  0
 29 30  2  0  0  0  0
M  END
>  <CHROM.1>
63.07720178,-51.81183785,85.97728810,-58.15695900,172.68965733,75.73978887
167.63651297,-173.99798122,-31.24978276,-150.19155527,149.95093711,-9.72884376
-5.94805927,9.08831147,2.09202278,-1.09872816,2.09585965

>  <Name>
1uts_lig

>  <RI>
0

>  <Rbt.Current_Directory>
/home/itssahil/PROJECTS/Mol_Feturizer/New_Systems/rnas/1uts

>  <Rbt.Executable>
rbdock ($Id: //depot/dev/client3/rdock/2013.1/src/exe/rbdock.cxx#4 $)

>  <Rbt.Library>
libRbt.so (2013.1, Build901 2013/11/27)

>  <Rbt.Parameter_File>
/export/apps/rDock/src/rDock_2013.1_src/data/scripts/dock_solv.prm

>  <Rbt.Receptor>
prm/blind_docking_60.prm

>  <SCORE>
-19.8038

>  <SCORE.INTER>
-26.8785

>  <SCORE.INTER.CONST>
1

>  <SCORE.INTER.POLAR>
-2.37037

>  <SCORE.INTER.ROT>
10

>  <SCORE.INTER.SOLV>
12.2571

>  <SCORE.INTER.VDW>
-24.3701

>  <SCORE.INTER.norm>
-0.895948

>  <SCORE.INTRA>
-1.79566

>  <SCORE.INTRA.DIHEDRAL>
-11.6942

>  <SCORE.INTRA.DIHEDRAL.0>
18.0451

>  <SCORE.INTRA.POLAR>
-0.717043

>  <SCORE.INTRA.POLAR.0>
-0.196815

>  <SCORE.INTRA.REPUL>
0

>  <SCORE.INTRA.REPUL.0>
0

>  <SCORE.INTRA.SOLV>
-0.147691

>  <SCORE.INTRA.SOLV.lig_0>
-14.7906

>  <SCORE.INTRA.VDW>
6.56323

>  <SCORE.INTRA.VDW.0>
-0.411701

>  <SCORE.INTRA.norm>
-0.0598553

>  <SCORE.RESTR>
8.87034

>  <SCORE.RESTR.CAVITY>
8.87034

>  <SCORE.RESTR.norm>
0.295678

>  <SCORE.SYSTEM>
0

>  <SCORE.SYSTEM.CONST>
0

>  <SCORE.SYSTEM.DIHEDRAL>
0

>  <SCORE.SYSTEM.SOLV>
0

>  <SCORE.SYSTEM.norm>
0

>  <SCORE.heavy>
30

>  <SCORE.norm>
-0.660126

>  <RMSD>
17.136

$$$$
1uts_lig
 OpenBabel11021811413D
libRbt.so/2013.1/901 2013/11/27
 30 33  0  0  0  0  0  0  0  0999 V2000
   -4.9498  -10.9155    4.4529 N   0  0  0  0  0  0  0  0  0  0  0  0
   -5.6153   -8.7307    5.3588 C   0  0  0  0  0  0  0  0  0  0  0  0
   -8.5857   -9.2907    6.5929 C   0  0  0  0  0  0  0  0  0  0  0  0
   -6.1546   -8.1045    4.0695 C   0  0  0  0  0  0  0  0  0  0  0  0
   -7.5788   -8.2738    4.0174 O   0  0  0  0  0  0  0  0  0  0  0  0
   -5.9029  -10.2332    5.3570 C   0  0  0  0  0  0  0  0  0  0  0  0
   -9.4076   -9.5654    7.7934 N   0  0  0  0  0  0  0  0  0  0  0  0
   -8.6166   -9.2762    9.0188 C   0  0  0  0  0  0  0  0  0  0  0  0
   -9.4486   -9.6051   10.2618 C   0  0  0  0  0  0  0  0  0  0  0  0
   -9.7177   -8.3613   11.0177 N   0  0  0  0  0  0  0  0  0  0  0  0
  -10.6354   -8.6642   12.1535 C   0  0  0  0  0  0  0  0  0  0  0  0
  -10.3314   -7.3531   10.1079 C   0  0  0  0  0  0  0  0  0  0  0  0
  -10.9203   -7.3737   12.9388 C   0  0  0  0  0  0  0  0  0  0  0  0
  -10.6206   -6.0617   10.8941 C   0  0  0  0  0  0  0  0  0  0  0  0
  -11.5352   -6.3654   12.0296 N   0  0  0  0  0  0  0  0  0  0  0  0
   -9.0118   -5.0846    5.4342 C   0  0  0  0  0  0  0  0  0  0  0  0
  -11.9141   -1.7850   10.1147 N   0  0  0  0  0  0  0  0  0  0  0  0
   -9.5255   -5.5370    6.6731 C   0  0  0  0  0  0  0  0  0  0  0  0
   -9.3844   -6.9013    7.0422 C   0  0  0  0  0  0  0  0  0  0  0  0
   -8.7261   -7.8136    6.1726 C   0  0  0  0  0  0  0  0  0  0  0  0
   -8.2233   -7.3589    4.9166 C   0  0  0  0  0  0  0  0  0  0  0  0
   -8.3647   -5.9914    4.5538 C   0  0  0  0  0  0  0  0  0  0  0  0
  -10.7201   -1.1838   10.5738 C   0  0  0  0  0  0  0  0  0  0  0  0
   -9.5884   -1.8021    9.9954 C   0  0  0  0  0  0  0  0  0  0  0  0
   -9.4138   -3.7221    8.3081 C   0  0  0  0  0  0  0  0  0  0  0  0
  -10.1746   -4.6319    7.5246 C   0  0  0  0  0  0  0  0  0  0  0  0
  -11.5945   -4.6177    7.6008 C   0  0  0  0  0  0  0  0  0  0  0  0
  -12.2516   -3.6935    8.4574 C   0  0  0  0  0  0  0  0  0  0  0  0
  -11.4839   -2.7701    9.2339 C   0  0  0  0  0  0  0  0  0  0  0  0
  -10.0790   -2.7831    9.1603 C   0  0  0  0  0  0  0  0  0  0  0  0
  1  6  1  0  0  0  0
  2  4  1  0  0  0  0
  3  7  1  0  0  0  0
  4  5  1  0  0  0  0
  6  2  1  0  0  0  0
  7  8  1  0  0  0  0
  8  9  1  0  0  0  0
  9 10  1  0  0  0  0
 10 11  1  0  0  0  0
 10 12  1  0  0  0  0
 11 13  1  0  0  0  0
 13 15  1  0  0  0  0
 14 12  1  0  0  0  0
 15 14  1  0  0  0  0
 16 18  2  0  0  0  0
 16 22  1  0  0  0  0
 17 23  1  0  0  0  0
 17 29  1  0  0  0  0
 18 19  1  0  0  0  0
 18 26  1  0  0  0  0
 19 20  2  0  0  0  0
 20  3  1  0  0  0  0
 20 21  1  0  0  0  0
 21  5  1  0  0  0  0
 21 22  2  0  0  0  0
 23 24  2  0  0  0  0
 24 30  1  0  0  0  0
 25 26  2  0  0  0  0
 25 30  1  0  0  0  0
 26 27  1  0  0  0  0
 27 28  2  0  0  0  0
 28 29  1  0  0  0  0
 29 30  2  0  0  0  0
M  END
>  <CHROM.1>
-76.72674387,62.29376208,-88.02069960,75.33009661,76.32168660,-178.08159630
-114.99805407,174.62422683,-77.49453001,10.13401273,-102.80789838,-9.30644784
-6.59458335,8.07455105,0.16250061,-1.03709317,2.54052151

>  <Name>
1uts_lig

>  <RI>
0

>  <Rbt.Current_Directory>
/home/itssahil/PROJECTS/Mol_Feturizer/New_Systems/rnas/1uts

>  <Rbt.Executable>
rbdock ($Id: //depot/dev/client3/rdock/2013.1/src/exe/rbdock.cxx#4 $)

>  <Rbt.Library>
libRbt.so (2013.1, Build901 2013/11/27)

>  <Rbt.Parameter_File>
/export/apps/rDock/src/rDock_2013.1_src/data/scripts/dock_solv.prm

>  <Rbt.Receptor>
prm/blind_docking_100.prm

>  <SCORE>
-34.1738

>  <SCORE.INTER>
-37.5657

>  <SCORE.INTER.CONST>
1

>  <SCORE.INTER.POLAR>
-1.72904

>  <SCORE.INTER.ROT>
10

>  <SCORE.INTER.SOLV>
9.98532

>  <SCORE.INTER.VDW>
-32.8754

>  <SCORE.INTER.norm>
-1.25219

>  <SCORE.INTRA>
2.90028

>  <SCORE.INTRA.DIHEDRAL>
1.67168

>  <SCORE.INTRA.DIHEDRAL.0>
18.0451

>  <SCORE.INTRA.POLAR>
0.196815

>  <SCORE.INTRA.POLAR.0>
-0.196815

>  <SCORE.INTRA.REPUL>
0

>  <SCORE.INTRA.REPUL.0>
0

>  <SCORE.INTRA.SOLV>
-0.0918513

>  <SCORE.INTRA.SOLV.lig_0>
-14.7906

>  <SCORE.INTRA.VDW>
1.44119

>  <SCORE.INTRA.VDW.0>
-0.411701

>  <SCORE.INTRA.norm>
0.096676

>  <SCORE.RESTR>
0.491633

>  <SCORE.RESTR.CAVITY>
0.491633

>  <SCORE.RESTR.norm>
0.0163878

>  <SCORE.SYSTEM>
0

>  <SCORE.SYSTEM.CONST>
0

>  <SCORE.SYSTEM.DIHEDRAL>
0

>  <SCORE.SYSTEM.SOLV>
0

>  <SCORE.SYSTEM.norm>
0

>  <SCORE.heavy>
30

>  <SCORE.norm>
-1.13913

>  <RMSD>
17.141

$$$$
1uts_lig
 OpenBabel11021811413D
libRbt.so/2013.1/901 2013/11/27
 30 33  0  0  0  0  0  0  0  0999 V2000
  -12.8224   -1.0137    8.8191 N   0  0  0  0  0  0  0  0  0  0  0  0
  -11.6701   -3.1605    9.1363 C   0  0  0  0  0  0  0  0  0  0  0  0
  -10.2535   -7.8707   10.2731 C   0  0  0  0  0  0  0  0  0  0  0  0
  -11.2409   -4.4204    8.3788 C   0  0  0  0  0  0  0  0  0  0  0  0
  -10.2786   -5.1421    9.1618 O   0  0  0  0  0  0  0  0  0  0  0  0
  -12.7156   -2.4021    8.3167 C   0  0  0  0  0  0  0  0  0  0  0  0
   -9.2312   -7.6910   11.3289 N   0  0  0  0  0  0  0  0  0  0  0  0
   -9.2290   -6.2768   11.7884 C   0  0  0  0  0  0  0  0  0  0  0  0
   -9.2638   -6.2296   13.3188 C   0  0  0  0  0  0  0  0  0  0  0  0
   -8.0350   -6.8535   13.8589 N   0  0  0  0  0  0  0  0  0  0  0  0
   -8.2895   -7.3152   15.2538 C   0  0  0  0  0  0  0  0  0  0  0  0
   -6.9245   -5.8599   13.8344 C   0  0  0  0  0  0  0  0  0  0  0  0
   -7.0140   -7.9604   15.8196 C   0  0  0  0  0  0  0  0  0  0  0  0
   -5.6477   -6.5037   14.4042 C   0  0  0  0  0  0  0  0  0  0  0  0
   -5.9033   -6.9668   15.7965 N   0  0  0  0  0  0  0  0  0  0  0  0
   -8.5534   -6.9538    6.3381 C   0  0  0  0  0  0  0  0  0  0  0  0
   -6.3213  -12.3651    3.6613 N   0  0  0  0  0  0  0  0  0  0  0  0
   -8.5052   -8.2749    6.8438 C   0  0  0  0  0  0  0  0  0  0  0  0
   -9.0576   -8.5650    8.1198 C   0  0  0  0  0  0  0  0  0  0  0  0
   -9.6616   -7.5333    8.8897 C   0  0  0  0  0  0  0  0  0  0  0  0
   -9.6946   -6.1987    8.3849 C   0  0  0  0  0  0  0  0  0  0  0  0
   -9.1429   -5.9148    7.1056 C   0  0  0  0  0  0  0  0  0  0  0  0
   -7.5406  -12.8428    3.1294 C   0  0  0  0  0  0  0  0  0  0  0  0
   -8.6369  -12.1173    3.6484 C   0  0  0  0  0  0  0  0  0  0  0  0
   -8.7124  -10.1545    5.2934 C   0  0  0  0  0  0  0  0  0  0  0  0
   -7.9068   -9.2866    6.0797 C   0  0  0  0  0  0  0  0  0  0  0  0
   -6.4932   -9.4418    6.0842 C   0  0  0  0  0  0  0  0  0  0  0  0
   -5.8872  -10.4618    5.3020 C   0  0  0  0  0  0  0  0  0  0  0  0
   -6.6993  -11.3245    4.5013 C   0  0  0  0  0  0  0  0  0  0  0  0
   -8.0980  -11.1728    4.4960 C   0  0  0  0  0  0  0  0  0  0  0  0
  1  6  1  0  0  0  0
  2  4  1  0  0  0  0
  3  7  1  0  0  0  0
  4  5  1  0  0  0  0
  6  2  1  0  0  0  0
  7  8  1  0  0  0  0
  8  9  1  0  0  0  0
  9 10  1  0  0  0  0
 10 11  1  0  0  0  0
 10 12  1  0  0  0  0
 11 13  1  0  0  0  0
 13 15  1  0  0  0  0
 14 12  1  0  0  0  0
 15 14  1  0  0  0  0
 16 18  2  0  0  0  0
 16 22  1  0  0  0  0
 17 23  1  0  0  0  0
 17 29  1  0  0  0  0
 18 19  1  0  0  0  0
 18 26  1  0  0  0  0
 19 20  2  0  0  0  0
 20  3  1  0  0  0  0
 20 21  1  0  0  0  0
 21  5  1  0  0  0  0
 21 22  2  0  0  0  0
 23 24  2  0  0  0  0
 24 30  1  0  0  0  0
 25 26  2  0  0  0  0
 25 30  1  0  0  0  0
 26 27  1  0  0  0  0
 27 28  2  0  0  0  0
 28 29  1  0  0  0  0
 29 30  2  0  0  0  0
M  END
>  <CHROM.1>
-53.36218967,-178.94093140,86.83972886,-170.28061910,-162.67112701,131.46789098
63.25261531,-156.96760471,-98.10918938,90.71830650,-128.43150002,-8.68164237
-7.47966470,9.09375924,1.74849555,-0.89702154,1.16425814

>  <Name>
1uts_lig

>  <RI>
0

>  <Rbt.Current_Directory>
/home/itssahil/PROJECTS/Mol_Feturizer/New_Systems/rnas/1uts

>  <Rbt.Executable>
rbdock ($Id: //depot/dev/client3/rdock/2013.1/src/exe/rbdock.cxx#4 $)

>  <Rbt.Library>
libRbt.so (2013.1, Build901 2013/11/27)

>  <Rbt.Parameter_File>
/export/apps/rDock/src/rDock_2013.1_src/data/scripts/dock_solv.prm

>  <Rbt.Receptor>
prm/blind_docking_80.prm

>  <SCORE>
-19.7304

>  <SCORE.INTER>
-20.3802

>  <SCORE.INTER.CONST>
1

>  <SCORE.INTER.POLAR>
-0.569022

>  <SCORE.INTER.ROT>
10

>  <SCORE.INTER.SOLV>
5.58029

>  <SCORE.INTER.VDW>
-23.8168

>  <SCORE.INTER.norm>
-0.679341

>  <SCORE.INTRA>
-0.601411

>  <SCORE.INTRA.DIHEDRAL>
-2.10015

>  <SCORE.INTRA.DIHEDRAL.0>
18.0451

>  <SCORE.INTRA.POLAR>
0.196815

>  <SCORE.INTRA.POLAR.0>
-0.196815

>  <SCORE.INTRA.REPUL>
0

>  <SCORE.INTRA.REPUL.0>
0

>  <SCORE.INTRA.SOLV>
-0.2785

>  <SCORE.INTRA.SOLV.lig_0>
-14.7906

>  <SCORE.INTRA.VDW>
-0.0812558

>  <SCORE.INTRA.VDW.0>
-0.411701

>  <SCORE.INTRA.norm>
-0.020047

>  <SCORE.RESTR>
1.25119

>  <SCORE.RESTR.CAVITY>
1.25119

>  <SCORE.RESTR.norm>
0.0417064

>  <SCORE.SYSTEM>
0

>  <SCORE.SYSTEM.CONST>
0

>  <SCORE.SYSTEM.DIHEDRAL>
0

>  <SCORE.SYSTEM.SOLV>
0

>  <SCORE.SYSTEM.norm>
0

>  <SCORE.heavy>
30

>  <SCORE.norm>
-0.657681

>  <RMSD>
17.153

$$$$
1uts_lig
 OpenBabel11021811413D
libRbt.so/2013.1/901 2013/11/27
 30 33  0  0  0  0  0  0  0  0999 V2000
  -11.2082   -9.0680   12.7465 N   0  0  0  0  0  0  0  0  0  0  0  0
  -10.7397   -6.6562   12.7186 C   0  0  0  0  0  0  0  0  0  0  0  0
   -9.1625   -8.3835   10.2161 C   0  0  0  0  0  0  0  0  0  0  0  0
   -9.5843   -5.6548   12.8052 C   0  0  0  0  0  0  0  0  0  0  0  0
   -8.5297   -6.0672   11.9235 O   0  0  0  0  0  0  0  0  0  0  0  0
  -10.2694   -8.0242   13.2161 C   0  0  0  0  0  0  0  0  0  0  0  0
   -9.5787   -9.3262    9.1530 N   0  0  0  0  0  0  0  0  0  0  0  0
   -8.5936   -9.2921    8.0396 C   0  0  0  0  0  0  0  0  0  0  0  0
   -9.2767   -9.7003    6.7311 C   0  0  0  0  0  0  0  0  0  0  0  0
   -8.3969   -9.3622    5.5898 N   0  0  0  0  0  0  0  0  0  0  0  0
   -7.1317  -10.1445    5.6948 C   0  0  0  0  0  0  0  0  0  0  0  0
   -8.1073   -7.9004    5.6052 C   0  0  0  0  0  0  0  0  0  0  0  0
   -6.2136   -9.7930    4.5130 C   0  0  0  0  0  0  0  0  0  0  0  0
   -7.1850   -7.5478    4.4243 C   0  0  0  0  0  0  0  0  0  0  0  0
   -5.9226   -8.3313    4.5286 N   0  0  0  0  0  0  0  0  0  0  0  0
   -9.3170   -4.2737    8.6993 C   0  0  0  0  0  0  0  0  0  0  0  0
  -11.1996   -4.3525    2.5416 N   0  0  0  0  0  0  0  0  0  0  0  0
   -9.6109   -5.3604    7.8414 C   0  0  0  0  0  0  0  0  0  0  0  0
   -9.5586   -6.6896    8.3392 C   0  0  0  0  0  0  0  0  0  0  0  0
   -9.2148   -6.9322    9.6975 C   0  0  0  0  0  0  0  0  0  0  0  0
   -8.9029   -5.8360   10.5566 C   0  0  0  0  0  0  0  0  0  0  0  0
   -8.9600   -4.5073   10.0536 C   0  0  0  0  0  0  0  0  0  0  0  0
  -12.5894   -4.5137    2.7419 C   0  0  0  0  0  0  0  0  0  0  0  0
  -12.8704   -4.8519    4.0852 C   0  0  0  0  0  0  0  0  0  0  0  0
  -11.3073   -5.1613    6.0915 C   0  0  0  0  0  0  0  0  0  0  0  0
   -9.9476   -5.1135    6.5030 C   0  0  0  0  0  0  0  0  0  0  0  0
   -8.9310   -4.8082    5.5567 C   0  0  0  0  0  0  0  0  0  0  0  0
   -9.2745   -4.5490    4.2023 C   0  0  0  0  0  0  0  0  0  0  0  0
  -10.6447   -4.5842    3.7944 C   0  0  0  0  0  0  0  0  0  0  0  0
  -11.6518   -4.8867    4.7290 C   0  0  0  0  0  0  0  0  0  0  0  0
  1  6  1  0  0  0  0
  2  4  1  0  0  0  0
  3  7  1  0  0  0  0
  4  5  1  0  0  0  0
  6  2  1  0  0  0  0
  7  8  1  0  0  0  0
  8  9  1  0  0  0  0
  9 10  1  0  0  0  0
 10 11  1  0  0  0  0
 10 12  1  0  0  0  0
 11 13  1  0  0  0  0
 13 15  1  0  0  0  0
 14 12  1  0  0  0  0
 15 14  1  0  0  0  0
 16 18  2  0  0  0  0
 16 22  1  0  0  0  0
 17 23  1  0  0  0  0
 17 29  1  0  0  0  0
 18 19  1  0  0  0  0
 18 26  1  0  0  0  0
 19 20  2  0  0  0  0
 20  3  1  0  0  0  0
 20 21  1  0  0  0  0
 21  5  1  0  0  0  0
 21 22  2  0  0  0  0
 23 24  2  0  0  0  0
 24 30  1  0  0  0  0
 25 26  2  0  0  0  0
 25 30  1  0  0  0  0
 26 27  1  0  0  0  0
 27 28  2  0  0  0  0
 28 29  1  0  0  0  0
 29 30  2  0  0  0  0
M  END
>  <CHROM.1>
-42.39695832,63.69354242,65.34616813,72.90321323,-162.20609930,-153.74490594
166.73714383,62.67057045,-101.73646178,-3.24246963,-108.30131316,-9.42422717
-6.83242012,7.50954849,1.57134164,-0.92925249,1.73891181

>  <Name>
1uts_lig

>  <RI>
0

>  <Rbt.Current_Directory>
/home/itssahil/PROJECTS/Mol_Feturizer/New_Systems/rnas/1uts

>  <Rbt.Executable>
rbdock ($Id: //depot/dev/client3/rdock/2013.1/src/exe/rbdock.cxx#4 $)

>  <Rbt.Library>
libRbt.so (2013.1, Build901 2013/11/27)

>  <Rbt.Parameter_File>
/export/apps/rDock/src/rDock_2013.1_src/data/scripts/dock_solv.prm

>  <Rbt.Receptor>
prm/blind_docking_100.prm

>  <SCORE>
-28.5773

>  <SCORE.INTER>
-35.3988

>  <SCORE.INTER.CONST>
1

>  <SCORE.INTER.POLAR>
-1.844

>  <SCORE.INTER.ROT>
10

>  <SCORE.INTER.SOLV>
10.1944

>  <SCORE.INTER.VDW>
-31.1173

>  <SCORE.INTER.norm>
-1.17996

>  <SCORE.INTRA>
3.19978

>  <SCORE.INTRA.DIHEDRAL>
-3.55256

>  <SCORE.INTRA.DIHEDRAL.0>
18.0451

>  <SCORE.INTRA.POLAR>
0.196815

>  <SCORE.INTRA.POLAR.0>
-0.196815

>  <SCORE.INTRA.REPUL>
0

>  <SCORE.INTRA.REPUL.0>
0

>  <SCORE.INTRA.SOLV>
-0.0687218

>  <SCORE.INTRA.SOLV.lig_0>
-14.7906

>  <SCORE.INTRA.VDW>
4.34125

>  <SCORE.INTRA.VDW.0>
-0.411701

>  <SCORE.INTRA.norm>
0.106659

>  <SCORE.RESTR>
3.62176

>  <SCORE.RESTR.CAVITY>
3.62176

>  <SCORE.RESTR.norm>
0.120725

>  <SCORE.SYSTEM>
0

>  <SCORE.SYSTEM.CONST>
0

>  <SCORE.SYSTEM.DIHEDRAL>
0

>  <SCORE.SYSTEM.SOLV>
0

>  <SCORE.SYSTEM.norm>
0

>  <SCORE.heavy>
30

>  <SCORE.norm>
-0.952576

>  <RMSD>
17.159

$$$$
1uts_lig
 OpenBabel11021811413D
libRbt.so/2013.1/901 2013/11/27
 30 33  0  0  0  0  0  0  0  0999 V2000
   -4.9383   -9.4135    4.9359 N   0  0  0  0  0  0  0  0  0  0  0  0
   -7.2819  -10.1148    4.7056 C   0  0  0  0  0  0  0  0  0  0  0  0
   -8.9051   -9.0509    6.8493 C   0  0  0  0  0  0  0  0  0  0  0  0
   -7.5173   -8.7516    4.0487 C   0  0  0  0  0  0  0  0  0  0  0  0
   -8.9282   -8.5061    3.9538 O   0  0  0  0  0  0  0  0  0  0  0  0
   -5.8205  -10.5269    4.5192 C   0  0  0  0  0  0  0  0  0  0  0  0
   -8.5415   -8.9130    8.2779 N   0  0  0  0  0  0  0  0  0  0  0  0
   -9.7754   -8.8634    9.1062 C   0  0  0  0  0  0  0  0  0  0  0  0
   -9.4036   -8.8937   10.5915 C   0  0  0  0  0  0  0  0  0  0  0  0
   -9.6615   -7.5651   11.1911 N   0  0  0  0  0  0  0  0  0  0  0  0
  -11.1180   -7.2583   11.1003 C   0  0  0  0  0  0  0  0  0  0  0  0
   -8.8665   -6.5334   10.4667 C   0  0  0  0  0  0  0  0  0  0  0  0
  -11.3891   -5.8773   11.7187 C   0  0  0  0  0  0  0  0  0  0  0  0
   -9.1401   -5.1495   11.0827 C   0  0  0  0  0  0  0  0  0  0  0  0
  -10.5953   -4.8448   10.9939 N   0  0  0  0  0  0  0  0  0  0  0  0
  -10.0925   -5.1534    5.2326 C   0  0  0  0  0  0  0  0  0  0  0  0
  -11.5026   -1.1803   10.1016 N   0  0  0  0  0  0  0  0  0  0  0  0
  -10.1123   -5.3802    6.6295 C   0  0  0  0  0  0  0  0  0  0  0  0
   -9.7267   -6.6457    7.1467 C   0  0  0  0  0  0  0  0  0  0  0  0
   -9.3179   -7.6844    6.2659 C   0  0  0  0  0  0  0  0  0  0  0  0
   -9.3143   -7.4587    4.8566 C   0  0  0  0  0  0  0  0  0  0  0  0
   -9.6983   -6.1890    4.3448 C   0  0  0  0  0  0  0  0  0  0  0  0
  -10.1893   -0.8372   10.4957 C   0  0  0  0  0  0  0  0  0  0  0  0
   -9.2396   -1.6834    9.8796 C   0  0  0  0  0  0  0  0  0  0  0  0
   -9.5483   -3.6133    8.2230 C   0  0  0  0  0  0  0  0  0  0  0  0
  -10.5179   -4.3517    7.4916 C   0  0  0  0  0  0  0  0  0  0  0  0
  -11.8986   -4.0408    7.6304 C   0  0  0  0  0  0  0  0  0  0  0  0
  -12.3077   -2.9919    8.4976 C   0  0  0  0  0  0  0  0  0  0  0  0
  -11.3289   -2.2417    9.2215 C   0  0  0  0  0  0  0  0  0  0  0  0
   -9.9625   -2.5483    9.0859 C   0  0  0  0  0  0  0  0  0  0  0  0
  1  6  1  0  0  0  0
  2  4  1  0  0  0  0
  3  7  1  0  0  0  0
  4  5  1  0  0  0  0
  6  2  1  0  0  0  0
  7  8  1  0  0  0  0
  8  9  1  0  0  0  0
  9 10  1  0  0  0  0
 10 11  1  0  0  0  0
 10 12  1  0  0  0  0
 11 13  1  0  0  0  0
 13 15  1  0  0  0  0
 14 12  1  0  0  0  0
 15 14  1  0  0  0  0
 16 18  2  0  0  0  0
 16 22  1  0  0  0  0
 17 23  1  0  0  0  0
 17 29  1  0  0  0  0
 18 19  1  0  0  0  0
 18 26  1  0  0  0  0
 19 20  2  0  0  0  0
 20  3  1  0  0  0  0
 20 21  1  0  0  0  0
 21  5  1  0  0  0  0
 21 22  2  0  0  0  0
 23 24  2  0  0  0  0
 24 30  1  0  0  0  0
 25 26  2  0  0  0  0
 25 30  1  0  0  0  0
 26 27  1  0  0  0  0
 27 28  2  0  0  0  0
 28 29  1  0  0  0  0
 29 30  2  0  0  0  0
M  END
>  <CHROM.1>
-51.19191689,166.97720790,79.66961498,110.21755048,50.25353821,173.11287956
108.90804302,62.56788665,-102.91586455,-20.43367817,-70.80710102,-9.49016642
-6.18166928,7.97209708,0.17777207,1.16545189,-1.07900479

>  <Name>
1uts_lig

>  <RI>
0

>  <Rbt.Current_Directory>
/home/itssahil/PROJECTS/Mol_Feturizer/New_Systems/rnas/1uts

>  <Rbt.Executable>
rbdock ($Id: //depot/dev/client3/rdock/2013.1/src/exe/rbdock.cxx#4 $)

>  <Rbt.Library>
libRbt.so (2013.1, Build901 2013/11/27)

>  <Rbt.Parameter_File>
/export/apps/rDock/src/rDock_2013.1_src/data/scripts/dock_solv.prm

>  <Rbt.Receptor>
prm/blind_docking_60.prm

>  <SCORE>
-14.2053

>  <SCORE.INTER>
-22.1982

>  <SCORE.INTER.CONST>
1

>  <SCORE.INTER.POLAR>
-1.92756

>  <SCORE.INTER.ROT>
10

>  <SCORE.INTER.SOLV>
8.89614

>  <SCORE.INTER.VDW>
-21.6056

>  <SCORE.INTER.norm>
-0.739939

>  <SCORE.INTRA>
7.11616

>  <SCORE.INTRA.DIHEDRAL>
5.47456

>  <SCORE.INTRA.DIHEDRAL.0>
18.0451

>  <SCORE.INTRA.POLAR>
0.196815

>  <SCORE.INTRA.POLAR.0>
-0.196815

>  <SCORE.INTRA.REPUL>
0

>  <SCORE.INTRA.REPUL.0>
0

>  <SCORE.INTRA.SOLV>
0.606469

>  <SCORE.INTRA.SOLV.lig_0>
-14.7906

>  <SCORE.INTRA.VDW>
3.40647

>  <SCORE.INTRA.VDW.0>
-0.411701

>  <SCORE.INTRA.norm>
0.237205

>  <SCORE.RESTR>
0.876706

>  <SCORE.RESTR.CAVITY>
0.876706

>  <SCORE.RESTR.norm>
0.0292235

>  <SCORE.SYSTEM>
0

>  <SCORE.SYSTEM.CONST>
0

>  <SCORE.SYSTEM.DIHEDRAL>
0

>  <SCORE.SYSTEM.SOLV>
0

>  <SCORE.SYSTEM.norm>
0

>  <SCORE.heavy>
30

>  <SCORE.norm>
-0.47351

>  <RMSD>
17.164

$$$$
1uts_lig
 OpenBabel11021811413D
libRbt.so/2013.1/901 2013/11/27
 30 33  0  0  0  0  0  0  0  0999 V2000
   -6.9915   -7.9672    1.9440 N   0  0  0  0  0  0  0  0  0  0  0  0
   -6.8254   -8.6346    4.3029 C   0  0  0  0  0  0  0  0  0  0  0  0
   -8.5074   -9.3200    8.2520 C   0  0  0  0  0  0  0  0  0  0  0  0
   -7.3894   -9.6359    5.3150 C   0  0  0  0  0  0  0  0  0  0  0  0
   -8.8214   -9.5417    5.3308 O   0  0  0  0  0  0  0  0  0  0  0  0
   -7.1592   -9.0985    2.8839 C   0  0  0  0  0  0  0  0  0  0  0  0
   -7.5501   -8.7728    9.2400 N   0  0  0  0  0  0  0  0  0  0  0  0
   -8.2927   -8.0832   10.3281 C   0  0  0  0  0  0  0  0  0  0  0  0
   -9.5067   -8.9218   10.7386 C   0  0  0  0  0  0  0  0  0  0  0  0
  -10.4348   -8.0880   11.5350 N   0  0  0  0  0  0  0  0  0  0  0  0
  -10.6846   -6.8055   10.8162 C   0  0  0  0  0  0  0  0  0  0  0  0
   -9.8374   -7.8255   12.8748 C   0  0  0  0  0  0  0  0  0  0  0  0
  -11.6453   -5.9350   11.6423 C   0  0  0  0  0  0  0  0  0  0  0  0
  -10.7969   -6.9507   13.7016 C   0  0  0  0  0  0  0  0  0  0  0  0
  -11.0478   -5.6711   12.9820 N   0  0  0  0  0  0  0  0  0  0  0  0
  -10.2051   -6.0707    5.8490 C   0  0  0  0  0  0  0  0  0  0  0  0
  -11.5926   -1.1386    9.7810 N   0  0  0  0  0  0  0  0  0  0  0  0
  -10.0879   -5.9314    7.2527 C   0  0  0  0  0  0  0  0  0  0  0  0
   -9.5373   -6.9884    8.0254 C   0  0  0  0  0  0  0  0  0  0  0  0
   -9.1005   -8.1848    7.3933 C   0  0  0  0  0  0  0  0  0  0  0  0
   -9.2347   -8.3297    5.9797 C   0  0  0  0  0  0  0  0  0  0  0  0
   -9.7838   -7.2670    5.2109 C   0  0  0  0  0  0  0  0  0  0  0  0
  -10.3524   -0.8731   10.4048 C   0  0  0  0  0  0  0  0  0  0  0  0
   -9.4159   -1.8932   10.1219 C   0  0  0  0  0  0  0  0  0  0  0  0
   -9.6322   -4.0099    8.6948 C   0  0  0  0  0  0  0  0  0  0  0  0
  -10.5220   -4.7494    7.8691 C   0  0  0  0  0  0  0  0  0  0  0  0
  -11.8502   -4.2846    7.6639 C   0  0  0  0  0  0  0  0  0  0  0  0
  -12.2861   -3.0814    8.2819 C   0  0  0  0  0  0  0  0  0  0  0  0
  -11.3843   -2.3324    9.1009 C   0  0  0  0  0  0  0  0  0  0  0  0
  -10.0701   -2.7910    9.3055 C   0  0  0  0  0  0  0  0  0  0  0  0
  1  6  1  0  0  0  0
  2  4  1  0  0  0  0
  3  7  1  0  0  0  0
  4  5  1  0  0  0  0
  6  2  1  0  0  0  0
  7  8  1  0  0  0  0
  8  9  1  0  0  0  0
  9 10  1  0  0  0  0
 10 11  1  0  0  0  0
 10 12  1  0  0  0  0
 11 13  1  0  0  0  0
 13 15  1  0  0  0  0
 14 12  1  0  0  0  0
 15 14  1  0  0  0  0
 16 18  2  0  0  0  0
 16 22  1  0  0  0  0
 17 23  1  0  0  0  0
 17 29  1  0  0  0  0
 18 19  1  0  0  0  0
 18 26  1  0  0  0  0
 19 20  2  0  0  0  0
 20  3  1  0  0  0  0
 20 21  1  0  0  0  0
 21  5  1  0  0  0  0
 21 22  2  0  0  0  0
 23 24  2  0  0  0  0
 24 30  1  0  0  0  0
 25 26  2  0  0  0  0
 25 30  1  0  0  0  0
 26 27  1  0  0  0  0
 27 28  2  0  0  0  0
 28 29  1  0  0  0  0
 29 30  2  0  0  0  0
M  END
>  <CHROM.1>
49.31392592,-70.37682571,74.00451841,-72.72679101,162.98172409,42.81678636
-164.59932338,49.57548273,-125.03636592,-44.81195449,-71.82164668,-9.63921668
-6.39601950,8.42733426,0.31989237,1.18212636,-0.96429919

>  <Name>
1uts_lig

>  <RI>
0

>  <Rbt.Current_Directory>
/home/itssahil/PROJECTS/Mol_Feturizer/New_Systems/rnas/1uts

>  <Rbt.Executable>
rbdock ($Id: //depot/dev/client3/rdock/2013.1/src/exe/rbdock.cxx#4 $)

>  <Rbt.Library>
libRbt.so (2013.1, Build901 2013/11/27)

>  <Rbt.Parameter_File>
/export/apps/rDock/src/rDock_2013.1_src/data/scripts/dock_solv.prm

>  <Rbt.Receptor>
prm/blind_docking_60.prm

>  <SCORE>
-17.011

>  <SCORE.INTER>
-27.2437

>  <SCORE.INTER.CONST>
1

>  <SCORE.INTER.POLAR>
-2.19543

>  <SCORE.INTER.ROT>
10

>  <SCORE.INTER.SOLV>
10.0483

>  <SCORE.INTER.VDW>
-24.4605

>  <SCORE.INTER.norm>
-0.908123

>  <SCORE.INTRA>
6.4637

>  <SCORE.INTRA.DIHEDRAL>
-5.03326

>  <SCORE.INTRA.DIHEDRAL.0>
18.0451

>  <SCORE.INTRA.POLAR>
0.196815

>  <SCORE.INTRA.POLAR.0>
-0.196815

>  <SCORE.INTRA.REPUL>
0

>  <SCORE.INTRA.REPUL.0>
0

>  <SCORE.INTRA.SOLV>
-0.314886

>  <SCORE.INTRA.SOLV.lig_0>
-14.7906

>  <SCORE.INTRA.VDW>
8.4686

>  <SCORE.INTRA.VDW.0>
-0.411701

>  <SCORE.INTRA.norm>
0.215457

>  <SCORE.RESTR>
3.76899

>  <SCORE.RESTR.CAVITY>
3.76899

>  <SCORE.RESTR.norm>
0.125633

>  <SCORE.SYSTEM>
0

>  <SCORE.SYSTEM.CONST>
0

>  <SCORE.SYSTEM.DIHEDRAL>
0

>  <SCORE.SYSTEM.SOLV>
0

>  <SCORE.SYSTEM.norm>
0

>  <SCORE.heavy>
30

>  <SCORE.norm>
-0.567033

>  <RMSD>
17.167

$$$$
1uts_lig
 OpenBabel11021811413D
libRbt.so/2013.1/901 2013/11/27
 30 33  0  0  0  0  0  0  0  0999 V2000
   -9.8538   -0.9933   11.1074 N   0  0  0  0  0  0  0  0  0  0  0  0
  -10.9503   -2.4845    9.4915 C   0  0  0  0  0  0  0  0  0  0  0  0
   -9.8146   -7.5513    9.9588 C   0  0  0  0  0  0  0  0  0  0  0  0
  -10.6922   -3.6049    8.4799 C   0  0  0  0  0  0  0  0  0  0  0  0
  -10.1162   -4.7327    9.1552 O   0  0  0  0  0  0  0  0  0  0  0  0
   -9.6158   -1.9085    9.9685 C   0  0  0  0  0  0  0  0  0  0  0  0
  -11.1761   -7.0924   10.3164 N   0  0  0  0  0  0  0  0  0  0  0  0
  -11.4245   -7.3395   11.7615 C   0  0  0  0  0  0  0  0  0  0  0  0
  -10.3928   -6.5808   12.6014 C   0  0  0  0  0  0  0  0  0  0  0  0
  -10.3364   -7.1667   13.9595 N   0  0  0  0  0  0  0  0  0  0  0  0
   -9.2423   -6.5121   14.7331 C   0  0  0  0  0  0  0  0  0  0  0  0
  -10.0941   -8.6334   13.8553 C   0  0  0  0  0  0  0  0  0  0  0  0
   -9.1782   -7.1209   16.1432 C   0  0  0  0  0  0  0  0  0  0  0  0
  -10.0259   -9.2435   15.2669 C   0  0  0  0  0  0  0  0  0  0  0  0
   -8.9346   -8.5876   16.0396 N   0  0  0  0  0  0  0  0  0  0  0  0
   -8.6973   -6.1481    5.9592 C   0  0  0  0  0  0  0  0  0  0  0  0
   -6.2728  -11.2269    2.7420 N   0  0  0  0  0  0  0  0  0  0  0  0
   -8.5198   -7.5073    6.3117 C   0  0  0  0  0  0  0  0  0  0  0  0
   -8.8835   -7.9553    7.6096 C   0  0  0  0  0  0  0  0  0  0  0  0
   -9.4282   -7.0434    8.5550 C   0  0  0  0  0  0  0  0  0  0  0  0
   -9.5911   -5.6699    8.2028 C   0  0  0  0  0  0  0  0  0  0  0  0
   -9.2282   -5.2278    6.9011 C   0  0  0  0  0  0  0  0  0  0  0  0
   -5.4984  -11.9335    3.6901 C   0  0  0  0  0  0  0  0  0  0  0  0
   -5.6444  -11.3737    4.9797 C   0  0  0  0  0  0  0  0  0  0  0  0
   -7.0579   -9.3974    5.7923 C   0  0  0  0  0  0  0  0  0  0  0  0
   -7.9808   -8.4002    5.3748 C   0  0  0  0  0  0  0  0  0  0  0  0
   -8.3615   -8.3146    4.0074 C   0  0  0  0  0  0  0  0  0  0  0  0
   -7.8215   -9.2262    3.0603 C   0  0  0  0  0  0  0  0  0  0  0  0
   -6.9038  -10.2371    3.4858 C   0  0  0  0  0  0  0  0  0  0  0  0
   -6.5256  -10.3229    4.8381 C   0  0  0  0  0  0  0  0  0  0  0  0
  1  6  1  0  0  0  0
  2  4  1  0  0  0  0
  3  7  1  0  0  0  0
  4  5  1  0  0  0  0
  6  2  1  0  0  0  0
  7  8  1  0  0  0  0
  8  9  1  0  0  0  0
  9 10  1  0  0  0  0
 10 11  1  0  0  0  0
 10 12  1  0  0  0  0
 11 13  1  0  0  0  0
 13 15  1  0  0  0  0
 14 12  1  0  0  0  0
 15 14  1  0  0  0  0
 16 18  2  0  0  0  0
 16 22  1  0  0  0  0
 17 23  1  0  0  0  0
 17 29  1  0  0  0  0
 18 19  1  0  0  0  0
 18 26  1  0  0  0  0
 19 20  2  0  0  0  0
 20  3  1  0  0  0  0
 20 21  1  0  0  0  0
 21  5  1  0  0  0  0
 21 22  2  0  0  0  0
 23 24  2  0  0  0  0
 24 30  1  0  0  0  0
 25 26  2  0  0  0  0
 25 30  1  0  0  0  0
 26 27  1  0  0  0  0
 27 28  2  0  0  0  0
 28 29  1  0  0  0  0
 29 30  2  0  0  0  0
M  END
>  <CHROM.1>
-72.89677261,69.46355502,-168.21269900,-167.07354396,-170.42724003,59.67438487
-160.89594205,174.68122656,140.53423800,-131.45037999,-156.60960861,-9.01288762
-7.21920521,9.01884971,2.49739782,-1.20103346,2.09051030

>  <Name>
1uts_lig

>  <RI>
0

>  <Rbt.Current_Directory>
/home/itssahil/PROJECTS/Mol_Feturizer/New_Systems/rnas/1uts

>  <Rbt.Executable>
rbdock ($Id: //depot/dev/client3/rdock/2013.1/src/exe/rbdock.cxx#4 $)

>  <Rbt.Library>
libRbt.so (2013.1, Build901 2013/11/27)

>  <Rbt.Parameter_File>
/export/apps/rDock/src/rDock_2013.1_src/data/scripts/dock_solv.prm

>  <Rbt.Receptor>
prm/blind_docking_80.prm

>  <SCORE>
-27.9075

>  <SCORE.INTER>
-28.7427

>  <SCORE.INTER.CONST>
1

>  <SCORE.INTER.POLAR>
-1.58911

>  <SCORE.INTER.ROT>
10

>  <SCORE.INTER.SOLV>
6.16728

>  <SCORE.INTER.VDW>
-26.1872

>  <SCORE.INTER.norm>
-0.95809

>  <SCORE.INTRA>
-1.08396

>  <SCORE.INTRA.DIHEDRAL>
-11.0704

>  <SCORE.INTRA.DIHEDRAL.0>
18.0451

>  <SCORE.INTRA.POLAR>
-0.493305

>  <SCORE.INTRA.POLAR.0>
-0.196815

>  <SCORE.INTRA.REPUL>
0

>  <SCORE.INTRA.REPUL.0>
0

>  <SCORE.INTRA.SOLV>
-0.241078

>  <SCORE.INTRA.SOLV.lig_0>
-14.7906

>  <SCORE.INTRA.VDW>
6.24902

>  <SCORE.INTRA.VDW.0>
-0.411701

>  <SCORE.INTRA.norm>
-0.0361319

>  <SCORE.RESTR>
1.91912

>  <SCORE.RESTR.CAVITY>
1.91912

>  <SCORE.RESTR.norm>
0.0639705

>  <SCORE.SYSTEM>
0

>  <SCORE.SYSTEM.CONST>
0

>  <SCORE.SYSTEM.DIHEDRAL>
0

>  <SCORE.SYSTEM.SOLV>
0

>  <SCORE.SYSTEM.norm>
0

>  <SCORE.heavy>
30

>  <SCORE.norm>
-0.930251

>  <RMSD>
17.167

$$$$
1uts_lig
 OpenBabel11021811413D
libRbt.so/2013.1/901 2013/11/27
 30 33  0  0  0  0  0  0  0  0999 V2000
  -10.3435   -9.7390   14.9727 N   0  0  0  0  0  0  0  0  0  0  0  0
  -10.4939   -7.4806   14.0165 C   0  0  0  0  0  0  0  0  0  0  0  0
  -11.5861   -7.3238   10.6377 C   0  0  0  0  0  0  0  0  0  0  0  0
   -9.6456   -7.2808   12.7573 C   0  0  0  0  0  0  0  0  0  0  0  0
   -9.3808   -8.5559   12.1542 O   0  0  0  0  0  0  0  0  0  0  0  0
   -9.7465   -8.3846   14.9986 C   0  0  0  0  0  0  0  0  0  0  0  0
  -11.8949   -5.9446   10.1965 N   0  0  0  0  0  0  0  0  0  0  0  0
  -10.9296   -4.9945   10.8100 C   0  0  0  0  0  0  0  0  0  0  0  0
   -9.8691   -4.5961    9.7794 C   0  0  0  0  0  0  0  0  0  0  0  0
   -9.6352   -3.1364    9.8522 N   0  0  0  0  0  0  0  0  0  0  0  0
   -9.1382   -2.7847   11.2135 C   0  0  0  0  0  0  0  0  0  0  0  0
  -10.9075   -2.4170    9.5611 C   0  0  0  0  0  0  0  0  0  0  0  0
   -8.8978   -1.2684   11.2941 C   0  0  0  0  0  0  0  0  0  0  0  0
  -10.6689   -0.8986    9.6453 C   0  0  0  0  0  0  0  0  0  0  0  0
  -10.1702   -0.5485   11.0043 N   0  0  0  0  0  0  0  0  0  0  0  0
   -7.9343   -8.7481    8.6754 C   0  0  0  0  0  0  0  0  0  0  0  0
   -8.1844   -7.8558    2.3501 N   0  0  0  0  0  0  0  0  0  0  0  0
   -8.9784   -8.1782    7.9083 C   0  0  0  0  0  0  0  0  0  0  0  0
  -10.1592   -7.7190    8.5504 C   0  0  0  0  0  0  0  0  0  0  0  0
  -10.2947   -7.8272    9.9618 C   0  0  0  0  0  0  0  0  0  0  0  0
   -9.2475   -8.4171   10.7315 C   0  0  0  0  0  0  0  0  0  0  0  0
   -8.0665   -8.8721   10.0836 C   0  0  0  0  0  0  0  0  0  0  0  0
   -6.7852   -8.0556    2.3614 C   0  0  0  0  0  0  0  0  0  0  0  0
   -6.3066   -8.2028    3.6831 C   0  0  0  0  0  0  0  0  0  0  0  0
   -7.5527   -8.1915    5.9217 C   0  0  0  0  0  0  0  0  0  0  0  0
   -8.8382   -8.0762    6.5171 C   0  0  0  0  0  0  0  0  0  0  0  0
   -9.9819   -7.8644    5.6989 C   0  0  0  0  0  0  0  0  0  0  0  0
   -9.8397   -7.7704    4.2881 C   0  0  0  0  0  0  0  0  0  0  0  0
   -8.5468   -7.9007    3.6910 C   0  0  0  0  0  0  0  0  0  0  0  0
   -7.4141   -8.1097    4.4988 C   0  0  0  0  0  0  0  0  0  0  0  0
  1  6  1  0  0  0  0
  2  4  1  0  0  0  0
  3  7  1  0  0  0  0
  4  5  1  0  0  0  0
  6  2  1  0  0  0  0
  7  8  1  0  0  0  0
  8  9  1  0  0  0  0
  9 10  1  0  0  0  0
 10 11  1  0  0  0  0
 10 12  1  0  0  0  0
 11 13  1  0  0  0  0
 13 15  1  0  0  0  0
 14 12  1  0  0  0  0
 15 14  1  0  0  0  0
 16 18  2  0  0  0  0
 16 22  1  0  0  0  0
 17 23  1  0  0  0  0
 17 29  1  0  0  0  0
 18 19  1  0  0  0  0
 18 26  1  0  0  0  0
 19 20  2  0  0  0  0
 20  3  1  0  0  0  0
 20 21  1  0  0  0  0
 21  5  1  0  0  0  0
 21 22  2  0  0  0  0
 23 24  2  0  0  0  0
 24 30  1  0  0  0  0
 25 26  2  0  0  0  0
 25 30  1  0  0  0  0
 26 27  1  0  0  0  0
 27 28  2  0  0  0  0
 28 29  1  0  0  0  0
 29 30  2  0  0  0  0
M  END
>  <CHROM.1>
165.19050416,59.11902523,-72.08471253,149.68570651,-104.14382616,102.01626759
136.19741499,60.96442202,-17.19154793,-50.72006111,-56.01943022,-9.44141442
-6.48942953,9.09027041,-2.93454283,1.31726407,-0.52039585

>  <Name>
1uts_lig

>  <RI>
0

>  <Rbt.Current_Directory>
/home/itssahil/PROJECTS/Mol_Feturizer/New_Systems/rnas/1uts

>  <Rbt.Executable>
rbdock ($Id: //depot/dev/client3/rdock/2013.1/src/exe/rbdock.cxx#4 $)

>  <Rbt.Library>
libRbt.so (2013.1, Build901 2013/11/27)

>  <Rbt.Parameter_File>
/export/apps/rDock/src/rDock_2013.1_src/data/scripts/dock_solv.prm

>  <Rbt.Receptor>
prm/blind_docking_60.prm

>  <SCORE>
-6.39183

>  <SCORE.INTER>
-19.0354

>  <SCORE.INTER.CONST>
1

>  <SCORE.INTER.POLAR>
-2.9405

>  <SCORE.INTER.ROT>
10

>  <SCORE.INTER.SOLV>
10.7546

>  <SCORE.INTER.VDW>
-16.7402

>  <SCORE.INTER.norm>
-0.634515

>  <SCORE.INTRA>
8.30032

>  <SCORE.INTRA.DIHEDRAL>
3.01119

>  <SCORE.INTRA.DIHEDRAL.0>
18.0451

>  <SCORE.INTRA.POLAR>
0.196815

>  <SCORE.INTRA.POLAR.0>
-0.196815

>  <SCORE.INTRA.REPUL>
0

>  <SCORE.INTRA.REPUL.0>
0

>  <SCORE.INTRA.SOLV>
-0.105079

>  <SCORE.INTRA.SOLV.lig_0>
-14.7906

>  <SCORE.INTRA.VDW>
6.17809

>  <SCORE.INTRA.VDW.0>
-0.411701

>  <SCORE.INTRA.norm>
0.276677

>  <SCORE.RESTR>
4.3433

>  <SCORE.RESTR.CAVITY>
4.3433

>  <SCORE.RESTR.norm>
0.144777

>  <SCORE.SYSTEM>
0

>  <SCORE.SYSTEM.CONST>
0

>  <SCORE.SYSTEM.DIHEDRAL>
0

>  <SCORE.SYSTEM.SOLV>
0

>  <SCORE.SYSTEM.norm>
0

>  <SCORE.heavy>
30

>  <SCORE.norm>
-0.213061

>  <RMSD>
17.184

$$$$
1uts_lig
 OpenBabel11021811413D
libRbt.so/2013.1/901 2013/11/27
 30 33  0  0  0  0  0  0  0  0999 V2000
   -4.7511  -12.2305    4.5739 N   0  0  0  0  0  0  0  0  0  0  0  0
   -6.9650  -11.1950    4.3217 C   0  0  0  0  0  0  0  0  0  0  0  0
   -6.8846   -8.5750    7.3118 C   0  0  0  0  0  0  0  0  0  0  0  0
   -7.9016  -10.1377    4.9136 C   0  0  0  0  0  0  0  0  0  0  0  0
   -7.5104   -8.8389    4.4447 O   0  0  0  0  0  0  0  0  0  0  0  0
   -5.5804  -11.0663    4.9593 C   0  0  0  0  0  0  0  0  0  0  0  0
   -7.5285   -9.2544    8.4589 N   0  0  0  0  0  0  0  0  0  0  0  0
   -7.8885   -8.2523    9.4968 C   0  0  0  0  0  0  0  0  0  0  0  0
   -9.1220   -8.7278   10.2700 C   0  0  0  0  0  0  0  0  0  0  0  0
   -9.5539   -7.6678   11.2085 N   0  0  0  0  0  0  0  0  0  0  0  0
  -10.6629   -8.1862   12.0601 C   0  0  0  0  0  0  0  0  0  0  0  0
  -10.0054   -6.4768   10.4349 C   0  0  0  0  0  0  0  0  0  0  0  0
  -11.1168   -7.0866   13.0337 C   0  0  0  0  0  0  0  0  0  0  0  0
  -10.4637   -5.3763   11.4087 C   0  0  0  0  0  0  0  0  0  0  0  0
  -11.5697   -5.8956   12.2605 N   0  0  0  0  0  0  0  0  0  0  0  0
   -9.7696   -5.9463    5.3165 C   0  0  0  0  0  0  0  0  0  0  0  0
  -12.0004   -1.7119    9.6545 N   0  0  0  0  0  0  0  0  0  0  0  0
   -9.5104   -5.7982    6.7000 C   0  0  0  0  0  0  0  0  0  0  0  0
   -8.5747   -6.6537    7.3404 C   0  0  0  0  0  0  0  0  0  0  0  0
   -7.8951   -7.6563    6.5956 C   0  0  0  0  0  0  0  0  0  0  0  0
   -8.1701   -7.8146    5.2041 C   0  0  0  0  0  0  0  0  0  0  0  0
   -9.1055   -6.9533    4.5677 C   0  0  0  0  0  0  0  0  0  0  0  0
  -10.8216   -1.1192   10.1613 C   0  0  0  0  0  0  0  0  0  0  0  0
   -9.6750   -1.8192    9.7219 C   0  0  0  0  0  0  0  0  0  0  0  0
   -9.4503   -3.8681    8.2002 C   0  0  0  0  0  0  0  0  0  0  0  0
  -10.1853   -4.8083    7.4281 C   0  0  0  0  0  0  0  0  0  0  0  0
  -11.6052   -4.7387    7.3901 C   0  0  0  0  0  0  0  0  0  0  0  0
  -12.2876   -3.7291    8.1212 C   0  0  0  0  0  0  0  0  0  0  0  0
  -11.5446   -2.7761    8.8859 C   0  0  0  0  0  0  0  0  0  0  0  0
  -10.1399   -2.8438    8.9252 C   0  0  0  0  0  0  0  0  0  0  0  0
  1  6  1  0  0  0  0
  2  4  1  0  0  0  0
  3  7  1  0  0  0  0
  4  5  1  0  0  0  0
  6  2  1  0  0  0  0
  7  8  1  0  0  0  0
  8  9  1  0  0  0  0
  9 10  1  0  0  0  0
 10 11  1  0  0  0  0
 10 12  1  0  0  0  0
 11 13  1  0  0  0  0
 13 15  1  0  0  0  0
 14 12  1  0  0  0  0
 15 14  1  0  0  0  0
 16 18  2  0  0  0  0
 16 22  1  0  0  0  0
 17 23  1  0  0  0  0
 17 29  1  0  0  0  0
 18 19  1  0  0  0  0
 18 26  1  0  0  0  0
 19 20  2  0  0  0  0
 20  3  1  0  0  0  0
 20 21  1  0  0  0  0
 21  5  1  0  0  0  0
 21 22  2  0  0  0  0
 23 24  2  0  0  0  0
 24 30  1  0  0  0  0
 25 26  2  0  0  0  0
 25 30  1  0  0  0  0
 26 27  1  0  0  0  0
 27 28  2  0  0  0  0
 28 29  1  0  0  0  0
 29 30  2  0  0  0  0
M  END
>  <CHROM.1>
-170.20392785,70.44598973,-66.40826592,-167.24727194,169.86012631,150.34232651
-174.45309710,-174.05649240,-126.50698549,55.68137525,65.00370660,-9.21898119
-6.71006890,8.13751903,-0.09968254,-1.07614418,2.11222888

>  <Name>
1uts_lig

>  <RI>
0

>  <Rbt.Current_Directory>
/home/itssahil/PROJECTS/Mol_Feturizer/New_Systems/rnas/1uts

>  <Rbt.Executable>
rbdock ($Id: //depot/dev/client3/rdock/2013.1/src/exe/rbdock.cxx#4 $)

>  <Rbt.Library>
libRbt.so (2013.1, Build901 2013/11/27)

>  <Rbt.Parameter_File>
/export/apps/rDock/src/rDock_2013.1_src/data/scripts/dock_solv.prm

>  <Rbt.Receptor>
prm/blind_docking_60.prm

>  <SCORE>
-26.4889

>  <SCORE.INTER>
-27.8099

>  <SCORE.INTER.CONST>
1

>  <SCORE.INTER.POLAR>
-0.712567

>  <SCORE.INTER.ROT>
10

>  <SCORE.INTER.SOLV>
9.39005

>  <SCORE.INTER.VDW>
-29.5614

>  <SCORE.INTER.norm>
-0.926996

>  <SCORE.INTRA>
-1.22945

>  <SCORE.INTRA.DIHEDRAL>
-6.44717

>  <SCORE.INTRA.DIHEDRAL.0>
18.0451

>  <SCORE.INTRA.POLAR>
0.196815

>  <SCORE.INTRA.POLAR.0>
-0.196815

>  <SCORE.INTRA.REPUL>
0

>  <SCORE.INTRA.REPUL.0>
0

>  <SCORE.INTRA.SOLV>
-0.305477

>  <SCORE.INTRA.SOLV.lig_0>
-14.7906

>  <SCORE.INTRA.VDW>
1.4777

>  <SCORE.INTRA.VDW.0>
-0.411701

>  <SCORE.INTRA.norm>
-0.0409817

>  <SCORE.RESTR>
2.55047

>  <SCORE.RESTR.CAVITY>
2.55047

>  <SCORE.RESTR.norm>
0.0850155

>  <SCORE.SYSTEM>
0

>  <SCORE.SYSTEM.CONST>
0

>  <SCORE.SYSTEM.DIHEDRAL>
0

>  <SCORE.SYSTEM.SOLV>
0

>  <SCORE.SYSTEM.norm>
0

>  <SCORE.heavy>
30

>  <SCORE.norm>
-0.882962

>  <RMSD>
17.184

$$$$
1uts_lig
 OpenBabel11021811413D
libRbt.so/2013.1/901 2013/11/27
 30 33  0  0  0  0  0  0  0  0999 V2000
   -5.6119  -11.2484    4.3906 N   0  0  0  0  0  0  0  0  0  0  0  0
   -7.2685   -9.7270    5.3797 C   0  0  0  0  0  0  0  0  0  0  0  0
  -10.2399   -9.1468    6.2851 C   0  0  0  0  0  0  0  0  0  0  0  0
   -7.2657   -8.6623    4.2789 C   0  0  0  0  0  0  0  0  0  0  0  0
   -8.6169   -8.2782    3.9846 O   0  0  0  0  0  0  0  0  0  0  0  0
   -5.8666  -10.3234    5.5180 C   0  0  0  0  0  0  0  0  0  0  0  0
  -10.0555   -9.5041    7.7101 N   0  0  0  0  0  0  0  0  0  0  0  0
   -8.7266   -9.0285    8.1777 C   0  0  0  0  0  0  0  0  0  0  0  0
   -8.7796   -8.7392    9.6807 C   0  0  0  0  0  0  0  0  0  0  0  0
   -9.2689   -7.3596    9.8998 N   0  0  0  0  0  0  0  0  0  0  0  0
   -8.5629   -6.7672   11.0722 C   0  0  0  0  0  0  0  0  0  0  0  0
  -10.7396   -7.3890   10.1388 C   0  0  0  0  0  0  0  0  0  0  0  0
   -9.0714   -5.3353   11.3053 C   0  0  0  0  0  0  0  0  0  0  0  0
  -11.2493   -5.9560   10.3760 C   0  0  0  0  0  0  0  0  0  0  0  0
  -10.5421   -5.3642   11.5456 N   0  0  0  0  0  0  0  0  0  0  0  0
   -9.1891   -4.9395    5.6451 C   0  0  0  0  0  0  0  0  0  0  0  0
  -11.5719   -1.2924   10.3514 N   0  0  0  0  0  0  0  0  0  0  0  0
   -9.9861   -5.3132    6.7534 C   0  0  0  0  0  0  0  0  0  0  0  0
  -10.3234   -6.6783    6.9547 C   0  0  0  0  0  0  0  0  0  0  0  0
   -9.8603   -7.6711    6.0481 C   0  0  0  0  0  0  0  0  0  0  0  0
   -9.0703   -7.2900    4.9221 C   0  0  0  0  0  0  0  0  0  0  0  0
   -8.7333   -5.9225    4.7275 C   0  0  0  0  0  0  0  0  0  0  0  0
  -10.2845   -0.9823   10.8457 C   0  0  0  0  0  0  0  0  0  0  0  0
   -9.3021   -1.8028   10.2463 C   0  0  0  0  0  0  0  0  0  0  0  0
   -9.5151   -3.6388    8.4722 C   0  0  0  0  0  0  0  0  0  0  0  0
  -10.4402   -4.3286    7.6422 C   0  0  0  0  0  0  0  0  0  0  0  0
  -11.8252   -4.0134    7.7100 C   0  0  0  0  0  0  0  0  0  0  0  0
  -12.2831   -3.0086    8.6046 C   0  0  0  0  0  0  0  0  0  0  0  0
  -11.3482   -2.3068    9.4283 C   0  0  0  0  0  0  0  0  0  0  0  0
   -9.9777   -2.6177    9.3631 C   0  0  0  0  0  0  0  0  0  0  0  0
  1  6  1  0  0  0  0
  2  4  1  0  0  0  0
  3  7  1  0  0  0  0
  4  5  1  0  0  0  0
  6  2  1  0  0  0  0
  7  8  1  0  0  0  0
  8  9  1  0  0  0  0
  9 10  1  0  0  0  0
 10 11  1  0  0  0  0
 10 12  1  0  0  0  0
 11 13  1  0  0  0  0
 13 15  1  0  0  0  0
 14 12  1  0  0  0  0
 15 14  1  0  0  0  0
 16 18  2  0  0  0  0
 16 22  1  0  0  0  0
 17 23  1  0  0  0  0
 17 29  1  0  0  0  0
 18 19  1  0  0  0  0
 18 26  1  0  0  0  0
 19 20  2  0  0  0  0
 20  3  1  0  0  0  0
 20 21  1  0  0  0  0
 21  5  1  0  0  0  0
 21 22  2  0  0  0  0
 23 24  2  0  0  0  0
 24 30  1  0  0  0  0
 25 26  2  0  0  0  0
 25 30  1  0  0  0  0
 26 27  1  0  0  0  0
 27 28  2  0  0  0  0
 28 29  1  0  0  0  0
 29 30  2  0  0  0  0
M  END
>  <CHROM.1>
-46.96515880,169.68705009,-47.61302263,83.07053974,-75.37508516,151.77098247
-85.90824868,-144.01946006,-67.83752502,-45.26564911,-97.95036687,-9.47222860
-6.28604361,7.91522336,-0.20671559,-1.19427635,1.98012399

>  <Name>
1uts_lig

>  <RI>
0

>  <Rbt.Current_Directory>
/home/itssahil/PROJECTS/Mol_Feturizer/New_Systems/rnas/1uts

>  <Rbt.Executable>
rbdock ($Id: //depot/dev/client3/rdock/2013.1/src/exe/rbdock.cxx#4 $)

>  <Rbt.Library>
libRbt.so (2013.1, Build901 2013/11/27)

>  <Rbt.Parameter_File>
/export/apps/rDock/src/rDock_2013.1_src/data/scripts/dock_solv.prm

>  <Rbt.Receptor>
prm/blind_docking_60.prm

>  <SCORE>
-30.1923

>  <SCORE.INTER>
-30.5942

>  <SCORE.INTER.CONST>
1

>  <SCORE.INTER.POLAR>
-2.23467

>  <SCORE.INTER.ROT>
10

>  <SCORE.INTER.SOLV>
7.22216

>  <SCORE.INTER.VDW>
-25.6213

>  <SCORE.INTER.norm>
-1.01981

>  <SCORE.INTRA>
-0.760321

>  <SCORE.INTRA.DIHEDRAL>
1.94645

>  <SCORE.INTRA.DIHEDRAL.0>
18.0451

>  <SCORE.INTRA.POLAR>
0.196815

>  <SCORE.INTRA.POLAR.0>
-0.196815

>  <SCORE.INTRA.REPUL>
0

>  <SCORE.INTRA.REPUL.0>
0

>  <SCORE.INTRA.SOLV>
0.348075

>  <SCORE.INTRA.SOLV.lig_0>
-14.7906

>  <SCORE.INTRA.VDW>
-2.57675

>  <SCORE.INTRA.VDW.0>
-0.411701

>  <SCORE.INTRA.norm>
-0.025344

>  <SCORE.RESTR>
1.16224

>  <SCORE.RESTR.CAVITY>
1.16224

>  <SCORE.RESTR.norm>
0.0387412

>  <SCORE.SYSTEM>
0

>  <SCORE.SYSTEM.CONST>
0

>  <SCORE.SYSTEM.DIHEDRAL>
0

>  <SCORE.SYSTEM.SOLV>
0

>  <SCORE.SYSTEM.norm>
0

>  <SCORE.heavy>
30

>  <SCORE.norm>
-1.00641

>  <RMSD>
17.194

$$$$
1uts_lig
 OpenBabel11021811413D
libRbt.so/2013.1/901 2013/11/27
 30 33  0  0  0  0  0  0  0  0999 V2000
  -10.0905   -9.5518   15.3599 N   0  0  0  0  0  0  0  0  0  0  0  0
  -11.1109   -8.0409   13.7126 C   0  0  0  0  0  0  0  0  0  0  0  0
   -8.6800   -6.2838   11.1680 C   0  0  0  0  0  0  0  0  0  0  0  0
  -10.9031   -8.8654   12.4390 C   0  0  0  0  0  0  0  0  0  0  0  0
   -9.5006   -8.9401   12.1437 O   0  0  0  0  0  0  0  0  0  0  0  0
   -9.9297   -8.2570   14.6604 C   0  0  0  0  0  0  0  0  0  0  0  0
   -9.6215   -5.1953   10.8204 N   0  0  0  0  0  0  0  0  0  0  0  0
   -9.2229   -4.5830    9.5253 C   0  0  0  0  0  0  0  0  0  0  0  0
  -10.1301   -3.3884    9.2164 C   0  0  0  0  0  0  0  0  0  0  0  0
  -10.5002   -2.7113   10.4795 N   0  0  0  0  0  0  0  0  0  0  0  0
  -11.4974   -1.6408   10.1905 C   0  0  0  0  0  0  0  0  0  0  0  0
   -9.2788   -2.1293   11.1044 C   0  0  0  0  0  0  0  0  0  0  0  0
  -11.8813   -0.9327   11.4998 C   0  0  0  0  0  0  0  0  0  0  0  0
   -9.6626   -1.4166   12.4138 C   0  0  0  0  0  0  0  0  0  0  0  0
  -10.6604   -0.3493   12.1247 N   0  0  0  0  0  0  0  0  0  0  0  0
   -9.2438   -9.6789    8.4532 C   0  0  0  0  0  0  0  0  0  0  0  0
   -8.0028   -7.9950    2.4008 N   0  0  0  0  0  0  0  0  0  0  0  0
   -8.8664   -8.4142    7.9421 C   0  0  0  0  0  0  0  0  0  0  0  0
   -8.6858   -7.3181    8.8273 C   0  0  0  0  0  0  0  0  0  0  0  0
   -8.8800   -7.4880   10.2256 C   0  0  0  0  0  0  0  0  0  0  0  0
   -9.2764   -8.7601   10.7371 C   0  0  0  0  0  0  0  0  0  0  0  0
   -9.4527   -9.8544    9.8466 C   0  0  0  0  0  0  0  0  0  0  0  0
   -7.1224   -9.0938    2.2774 C   0  0  0  0  0  0  0  0  0  0  0  0
   -6.8907   -9.6991    3.5334 C   0  0  0  0  0  0  0  0  0  0  0  0
   -7.8154   -9.1351    5.8552 C   0  0  0  0  0  0  0  0  0  0  0  0
   -8.6782   -8.2540    6.5621 C   0  0  0  0  0  0  0  0  0  0  0  0
   -9.3551   -7.2149    5.8661 C   0  0  0  0  0  0  0  0  0  0  0  0
   -9.1707   -7.0594    4.4656 C   0  0  0  0  0  0  0  0  0  0  0  0
   -8.3128   -7.9560    3.7549 C   0  0  0  0  0  0  0  0  0  0  0  0
   -7.6418   -8.9843    4.4419 C   0  0  0  0  0  0  0  0  0  0  0  0
  1  6  1  0  0  0  0
  2  4  1  0  0  0  0
  3  7  1  0  0  0  0
  4  5  1  0  0  0  0
  6  2  1  0  0  0  0
  7  8  1  0  0  0  0
  8  9  1  0  0  0  0
  9 10  1  0  0  0  0
 10 11  1  0  0  0  0
 10 12  1  0  0  0  0
 11 13  1  0  0  0  0
 13 15  1  0  0  0  0
 14 12  1  0  0  0  0
 15 14  1  0  0  0  0
 16 18  2  0  0  0  0
 16 22  1  0  0  0  0
 17 23  1  0  0  0  0
 17 29  1  0  0  0  0
 18 19  1  0  0  0  0
 18 26  1  0  0  0  0
 19 20  2  0  0  0  0
 20  3  1  0  0  0  0
 20 21  1  0  0  0  0
 21  5  1  0  0  0  0
 21 22  2  0  0  0  0
 23 24  2  0  0  0  0
 24 30  1  0  0  0  0
 25 26  2  0  0  0  0
 25 30  1  0  0  0  0
 26 27  1  0  0  0  0
 27 28  2  0  0  0  0
 28 29  1  0  0  0  0
 29 30  2  0  0  0  0
M  END
>  <CHROM.1>
75.24780918,-33.02989002,-70.59444540,-137.59889358,-78.68648104,-175.69665441
34.14946024,-173.99627704,-52.43639454,60.48974247,98.73568349,-9.39156865
-6.53898803,9.25283504,-3.06029819,1.31470620,-0.60596546

>  <Name>
1uts_lig

>  <RI>
0

>  <Rbt.Current_Directory>
/home/itssahil/PROJECTS/Mol_Feturizer/New_Systems/rnas/1uts

>  <Rbt.Executable>
rbdock ($Id: //depot/dev/client3/rdock/2013.1/src/exe/rbdock.cxx#4 $)

>  <Rbt.Library>
libRbt.so (2013.1, Build901 2013/11/27)

>  <Rbt.Parameter_File>
/export/apps/rDock/src/rDock_2013.1_src/data/scripts/dock_solv.prm

>  <Rbt.Receptor>
prm/blind_docking_60.prm

>  <SCORE>
-16.9004

>  <SCORE.INTER>
-29.7076

>  <SCORE.INTER.CONST>
1

>  <SCORE.INTER.POLAR>
-2.65595

>  <SCORE.INTER.ROT>
10

>  <SCORE.INTER.SOLV>
10.2397

>  <SCORE.INTER.VDW>
-24.6319

>  <SCORE.INTER.norm>
-0.990255

>  <SCORE.INTRA>
6.96725

>  <SCORE.INTRA.DIHEDRAL>
2.80845

>  <SCORE.INTRA.DIHEDRAL.0>
18.0451

>  <SCORE.INTRA.POLAR>
0.196815

>  <SCORE.INTRA.POLAR.0>
-0.196815

>  <SCORE.INTRA.REPUL>
0

>  <SCORE.INTRA.REPUL.0>
0

>  <SCORE.INTRA.SOLV>
0.161213

>  <SCORE.INTRA.SOLV.lig_0>
-14.7906

>  <SCORE.INTRA.VDW>
4.81324

>  <SCORE.INTRA.VDW.0>
-0.411701

>  <SCORE.INTRA.norm>
0.232242

>  <SCORE.RESTR>
5.84003

>  <SCORE.RESTR.CAVITY>
5.84003

>  <SCORE.RESTR.norm>
0.194668

>  <SCORE.SYSTEM>
0

>  <SCORE.SYSTEM.CONST>
0

>  <SCORE.SYSTEM.DIHEDRAL>
0

>  <SCORE.SYSTEM.SOLV>
0

>  <SCORE.SYSTEM.norm>
0

>  <SCORE.heavy>
30

>  <SCORE.norm>
-0.563345

>  <RMSD>
17.205

$$$$
1uts_lig
 OpenBabel11021811413D
libRbt.so/2013.1/901 2013/11/27
 30 33  0  0  0  0  0  0  0  0999 V2000
   -5.4436  -12.4860    4.2088 N   0  0  0  0  0  0  0  0  0  0  0  0
   -6.7787  -10.4316    4.3933 C   0  0  0  0  0  0  0  0  0  0  0  0
   -9.2878   -9.2576    6.3943 C   0  0  0  0  0  0  0  0  0  0  0  0
   -6.7095   -8.9364    4.7174 C   0  0  0  0  0  0  0  0  0  0  0  0
   -7.7906   -8.2567    4.0624 O   0  0  0  0  0  0  0  0  0  0  0  0
   -5.4173  -11.0764    4.6600 C   0  0  0  0  0  0  0  0  0  0  0  0
   -9.8787   -9.4553    7.7374 N   0  0  0  0  0  0  0  0  0  0  0  0
   -8.8721   -9.1254    8.7809 C   0  0  0  0  0  0  0  0  0  0  0  0
   -9.4232   -9.4844   10.1639 C   0  0  0  0  0  0  0  0  0  0  0  0
   -9.7979   -8.2454   10.8818 N   0  0  0  0  0  0  0  0  0  0  0  0
  -10.7148   -7.4387   10.0260 C   0  0  0  0  0  0  0  0  0  0  0  0
   -8.5671   -7.4684   11.2019 C   0  0  0  0  0  0  0  0  0  0  0  0
  -11.1031   -6.1489   10.7668 C   0  0  0  0  0  0  0  0  0  0  0  0
   -8.9551   -6.1747   11.9405 C   0  0  0  0  0  0  0  0  0  0  0  0
   -9.8727   -5.3708   11.0862 N   0  0  0  0  0  0  0  0  0  0  0  0
   -8.8731   -4.9724    5.5700 C   0  0  0  0  0  0  0  0  0  0  0  0
  -11.8199   -1.5297   10.1108 N   0  0  0  0  0  0  0  0  0  0  0  0
   -9.6160   -5.4127    6.6913 C   0  0  0  0  0  0  0  0  0  0  0  0
   -9.7469   -6.8027    6.9524 C   0  0  0  0  0  0  0  0  0  0  0  0
   -9.1313   -7.7534    6.0927 C   0  0  0  0  0  0  0  0  0  0  0  0
   -8.3963   -7.3078    4.9533 C   0  0  0  0  0  0  0  0  0  0  0  0
   -8.2661   -5.9150    4.6987 C   0  0  0  0  0  0  0  0  0  0  0  0
  -10.6009   -1.0583   10.6489 C   0  0  0  0  0  0  0  0  0  0  0  0
   -9.5034   -1.7695   10.1128 C   0  0  0  0  0  0  0  0  0  0  0  0
   -9.4211   -3.6567    8.3819 C   0  0  0  0  0  0  0  0  0  0  0  0
  -10.2213   -4.4694    7.5337 C   0  0  0  0  0  0  0  0  0  0  0  0
  -11.6354   -4.3192    7.5360 C   0  0  0  0  0  0  0  0  0  0  0  0
  -12.2470   -3.3563    8.3835 C   0  0  0  0  0  0  0  0  0  0  0  0
  -11.4383   -2.5306    9.2255 C   0  0  0  0  0  0  0  0  0  0  0  0
  -10.0391   -2.6781    9.2250 C   0  0  0  0  0  0  0  0  0  0  0  0
  1  6  1  0  0  0  0
  2  4  1  0  0  0  0
  3  7  1  0  0  0  0
  4  5  1  0  0  0  0
  6  2  1  0  0  0  0
  7  8  1  0  0  0  0
  8  9  1  0  0  0  0
  9 10  1  0  0  0  0
 10 11  1  0  0  0  0
 10 12  1  0  0  0  0
 11 13  1  0  0  0  0
 13 15  1  0  0  0  0
 14 12  1  0  0  0  0
 15 14  1  0  0  0  0
 16 18  2  0  0  0  0
 16 22  1  0  0  0  0
 17 23  1  0  0  0  0
 17 29  1  0  0  0  0
 18 19  1  0  0  0  0
 18 26  1  0  0  0  0
 19 20  2  0  0  0  0
 20  3  1  0  0  0  0
 20 21  1  0  0  0  0
 21  5  1  0  0  0  0
 21 22  2  0  0  0  0
 23 24  2  0  0  0  0
 24 30  1  0  0  0  0
 25 26  2  0  0  0  0
 25 30  1  0  0  0  0
 26 27  1  0  0  0  0
 27 28  2  0  0  0  0
 28 29  1  0  0  0  0
 29 30  2  0  0  0  0
M  END
>  <CHROM.1>
-76.31932919,160.60171871,-72.51458684,136.56119703,-173.91623662,-173.40312301
-105.83772902,53.15951679,-70.82877881,-10.86129588,-68.20168064,-9.27311998
-6.57436277,7.90820533,0.08676547,-1.15566478,2.28025702

>  <Name>
1uts_lig

>  <RI>
0

>  <Rbt.Current_Directory>
/home/itssahil/PROJECTS/Mol_Feturizer/New_Systems/rnas/1uts

>  <Rbt.Executable>
rbdock ($Id: //depot/dev/client3/rdock/2013.1/src/exe/rbdock.cxx#4 $)

>  <Rbt.Library>
libRbt.so (2013.1, Build901 2013/11/27)

>  <Rbt.Parameter_File>
/export/apps/rDock/src/rDock_2013.1_src/data/scripts/dock_solv.prm

>  <Rbt.Receptor>
prm/blind_docking_60.prm

>  <SCORE>
-25.4149

>  <SCORE.INTER>
-31.5467

>  <SCORE.INTER.CONST>
1

>  <SCORE.INTER.POLAR>
-1.65644

>  <SCORE.INTER.ROT>
10

>  <SCORE.INTER.SOLV>
7.76678

>  <SCORE.INTER.VDW>
-28.3653

>  <SCORE.INTER.norm>
-1.05156

>  <SCORE.INTRA>
4.68136

>  <SCORE.INTRA.DIHEDRAL>
4.51509

>  <SCORE.INTRA.DIHEDRAL.0>
18.0451

>  <SCORE.INTRA.POLAR>
0.196815

>  <SCORE.INTRA.POLAR.0>
-0.196815

>  <SCORE.INTRA.REPUL>
0

>  <SCORE.INTRA.REPUL.0>
0

>  <SCORE.INTRA.SOLV>
0.0366623

>  <SCORE.INTRA.SOLV.lig_0>
-14.7906

>  <SCORE.INTRA.VDW>
1.73631

>  <SCORE.INTRA.VDW.0>
-0.411701

>  <SCORE.INTRA.norm>
0.156045

>  <SCORE.RESTR>
1.45046

>  <SCORE.RESTR.CAVITY>
1.45046

>  <SCORE.RESTR.norm>
0.0483485

>  <SCORE.SYSTEM>
0

>  <SCORE.SYSTEM.CONST>
0

>  <SCORE.SYSTEM.DIHEDRAL>
0

>  <SCORE.SYSTEM.SOLV>
0

>  <SCORE.SYSTEM.norm>
0

>  <SCORE.heavy>
30

>  <SCORE.norm>
-0.847163

>  <RMSD>
17.241

$$$$
1uts_lig
 OpenBabel11021811413D
libRbt.so/2013.1/901 2013/11/27
 30 33  0  0  0  0  0  0  0  0999 V2000
  -11.7913   -0.9287   11.6629 N   0  0  0  0  0  0  0  0  0  0  0  0
  -12.2578   -1.8428    9.4305 C   0  0  0  0  0  0  0  0  0  0  0  0
   -9.1027   -4.1188    9.1324 C   0  0  0  0  0  0  0  0  0  0  0  0
  -11.5411   -2.7643    8.4393 C   0  0  0  0  0  0  0  0  0  0  0  0
  -12.0042   -4.1106    8.6203 O   0  0  0  0  0  0  0  0  0  0  0  0
  -11.8010   -2.1682   10.8537 C   0  0  0  0  0  0  0  0  0  0  0  0
   -8.8308   -4.8436   10.3945 N   0  0  0  0  0  0  0  0  0  0  0  0
   -9.7082   -4.3172   11.4734 C   0  0  0  0  0  0  0  0  0  0  0  0
  -10.8744   -5.2816   11.7092 C   0  0  0  0  0  0  0  0  0  0  0  0
  -10.3449   -6.6159   12.0699 N   0  0  0  0  0  0  0  0  0  0  0  0
  -10.7079   -7.5941   11.0044 C   0  0  0  0  0  0  0  0  0  0  0  0
  -10.9174   -7.0373   13.3797 C   0  0  0  0  0  0  0  0  0  0  0  0
  -10.1629   -8.9823   11.3775 C   0  0  0  0  0  0  0  0  0  0  0  0
  -10.3752   -8.4288   13.7525 C   0  0  0  0  0  0  0  0  0  0  0  0
  -10.7361   -9.4047   12.6868 N   0  0  0  0  0  0  0  0  0  0  0  0
  -10.9472   -6.8035    6.1990 C   0  0  0  0  0  0  0  0  0  0  0  0
   -6.2971  -10.4797    3.6242 N   0  0  0  0  0  0  0  0  0  0  0  0
   -9.5467   -6.8262    6.4025 C   0  0  0  0  0  0  0  0  0  0  0  0
   -8.9554   -5.9532    7.3543 C   0  0  0  0  0  0  0  0  0  0  0  0
   -9.7661   -5.0588    8.1057 C   0  0  0  0  0  0  0  0  0  0  0  0
  -11.1762   -5.0260    7.8872 C   0  0  0  0  0  0  0  0  0  0  0  0
  -11.7629   -5.9044    6.9354 C   0  0  0  0  0  0  0  0  0  0  0  0
   -5.6113  -10.9937    4.7481 C   0  0  0  0  0  0  0  0  0  0  0  0
   -6.0379  -10.3562    5.9352 C   0  0  0  0  0  0  0  0  0  0  0  0
   -7.7984   -8.5334    6.3122 C   0  0  0  0  0  0  0  0  0  0  0  0
   -8.7537   -7.7098    5.6569 C   0  0  0  0  0  0  0  0  0  0  0  0
   -8.9083   -7.7888    4.2455 C   0  0  0  0  0  0  0  0  0  0  0  0
   -8.1103   -8.6915    3.4920 C   0  0  0  0  0  0  0  0  0  0  0  0
   -7.1598   -9.5287    4.1558 C   0  0  0  0  0  0  0  0  0  0  0  0
   -7.0050   -9.4515    5.5520 C   0  0  0  0  0  0  0  0  0  0  0  0
  1  6  1  0  0  0  0
  2  4  1  0  0  0  0
  3  7  1  0  0  0  0
  4  5  1  0  0  0  0
  6  2  1  0  0  0  0
  7  8  1  0  0  0  0
  8  9  1  0  0  0  0
  9 10  1  0  0  0  0
 10 11  1  0  0  0  0
 10 12  1  0  0  0  0
 11 13  1  0  0  0  0
 13 15  1  0  0  0  0
 14 12  1  0  0  0  0
 15 14  1  0  0  0  0
 16 18  2  0  0  0  0
 16 22  1  0  0  0  0
 17 23  1  0  0  0  0
 17 29  1  0  0  0  0
 18 19  1  0  0  0  0
 18 26  1  0  0  0  0
 19 20  2  0  0  0  0
 20  3  1  0  0  0  0
 20 21  1  0  0  0  0
 21  5  1  0  0  0  0
 21 22  2  0  0  0  0
 23 24  2  0  0  0  0
 24 30  1  0  0  0  0
 25 26  2  0  0  0  0
 25 30  1  0  0  0  0
 26 27  1  0  0  0  0
 27 28  2  0  0  0  0
 28 29  1  0  0  0  0
 29 30  2  0  0  0  0
M  END
>  <CHROM.1>
171.60429681,68.10953848,-111.79881120,-169.17487802,146.76025629,102.10311453
58.32906639,-115.16618014,-130.96832757,-80.64541584,55.84319809,-9.69561184
-6.49899137,8.58862356,2.80979195,-1.10345975,2.09230739

>  <Name>
1uts_lig

>  <RI>
0

>  <Rbt.Current_Directory>
/home/itssahil/PROJECTS/Mol_Feturizer/New_Systems/rnas/1uts

>  <Rbt.Executable>
rbdock ($Id: //depot/dev/client3/rdock/2013.1/src/exe/rbdock.cxx#4 $)

>  <Rbt.Library>
libRbt.so (2013.1, Build901 2013/11/27)

>  <Rbt.Parameter_File>
/export/apps/rDock/src/rDock_2013.1_src/data/scripts/dock_solv.prm

>  <Rbt.Receptor>
prm/blind_docking_60.prm

>  <SCORE>
-7.18351

>  <SCORE.INTER>
-17.2097

>  <SCORE.INTER.CONST>
1

>  <SCORE.INTER.POLAR>
-1.32496

>  <SCORE.INTER.ROT>
10

>  <SCORE.INTER.SOLV>
6.63113

>  <SCORE.INTER.VDW>
-19.5337

>  <SCORE.INTER.norm>
-0.573657

>  <SCORE.INTRA>
3.54113

>  <SCORE.INTRA.DIHEDRAL>
2.7672

>  <SCORE.INTRA.DIHEDRAL.0>
18.0451

>  <SCORE.INTRA.POLAR>
0.196815

>  <SCORE.INTRA.POLAR.0>
-0.196815

>  <SCORE.INTRA.REPUL>
0

>  <SCORE.INTRA.REPUL.0>
0

>  <SCORE.INTRA.SOLV>
0.0879375

>  <SCORE.INTRA.SOLV.lig_0>
-14.7906

>  <SCORE.INTRA.VDW>
1.44439

>  <SCORE.INTRA.VDW.0>
-0.411701

>  <SCORE.INTRA.norm>
0.118038

>  <SCORE.RESTR>
6.48506

>  <SCORE.RESTR.CAVITY>
6.48506

>  <SCORE.RESTR.norm>
0.216169

>  <SCORE.SYSTEM>
0

>  <SCORE.SYSTEM.CONST>
0

>  <SCORE.SYSTEM.DIHEDRAL>
0

>  <SCORE.SYSTEM.SOLV>
0

>  <SCORE.SYSTEM.norm>
0

>  <SCORE.heavy>
30

>  <SCORE.norm>
-0.23945

>  <RMSD>
17.284

$$$$
1uts_lig
 OpenBabel11021811413D
libRbt.so/2013.1/901 2013/11/27
 30 33  0  0  0  0  0  0  0  0999 V2000
   -6.2055  -12.7635    4.4938 N   0  0  0  0  0  0  0  0  0  0  0  0
   -6.1726  -10.3233    4.2079 C   0  0  0  0  0  0  0  0  0  0  0  0
   -7.3451   -8.8019    7.6419 C   0  0  0  0  0  0  0  0  0  0  0  0
   -6.6445   -8.9973    4.8113 C   0  0  0  0  0  0  0  0  0  0  0  0
   -8.0788   -8.9491    4.7922 O   0  0  0  0  0  0  0  0  0  0  0  0
   -6.7218  -11.4864    5.0361 C   0  0  0  0  0  0  0  0  0  0  0  0
   -7.7607   -8.9785    9.0520 N   0  0  0  0  0  0  0  0  0  0  0  0
   -9.1178   -9.5841    9.1020 C   0  0  0  0  0  0  0  0  0  0  0  0
   -9.6223   -9.6055   10.5479 C   0  0  0  0  0  0  0  0  0  0  0  0
   -9.7938   -8.2167   11.0304 N   0  0  0  0  0  0  0  0  0  0  0  0
  -10.5110   -8.2348   12.3377 C   0  0  0  0  0  0  0  0  0  0  0  0
  -10.5670   -7.4358   10.0237 C   0  0  0  0  0  0  0  0  0  0  0  0
  -10.6945   -6.7936   12.8402 C   0  0  0  0  0  0  0  0  0  0  0  0
  -10.7545   -5.9934   10.5275 C   0  0  0  0  0  0  0  0  0  0  0  0
  -11.4687   -6.0124   11.8344 N   0  0  0  0  0  0  0  0  0  0  0  0
   -9.8375   -5.7457    5.7283 C   0  0  0  0  0  0  0  0  0  0  0  0
  -11.7327   -1.3856   10.0335 N   0  0  0  0  0  0  0  0  0  0  0  0
   -9.5225   -5.6476    7.1047 C   0  0  0  0  0  0  0  0  0  0  0  0
   -8.7147   -6.6416    7.7186 C   0  0  0  0  0  0  0  0  0  0  0  0
   -8.2189   -7.7334    6.9544 C   0  0  0  0  0  0  0  0  0  0  0  0
   -8.5513   -7.8391    5.5704 C   0  0  0  0  0  0  0  0  0  0  0  0
   -9.3577   -6.8394    4.9605 C   0  0  0  0  0  0  0  0  0  0  0  0
  -13.0370   -1.4604    9.4940 C   0  0  0  0  0  0  0  0  0  0  0  0
  -13.1260   -2.4886    8.5283 C   0  0  0  0  0  0  0  0  0  0  0  0
  -11.3669   -4.1548    7.6957 C   0  0  0  0  0  0  0  0  0  0  0  0
  -10.0162   -4.5690    7.8521 C   0  0  0  0  0  0  0  0  0  0  0  0
   -9.1693   -3.8924    8.7724 C   0  0  0  0  0  0  0  0  0  0  0  0
   -9.6736   -2.8051    9.5361 C   0  0  0  0  0  0  0  0  0  0  0  0
  -11.0367   -2.3997    9.3867 C   0  0  0  0  0  0  0  0  0  0  0  0
  -11.8760   -3.0676    8.4762 C   0  0  0  0  0  0  0  0  0  0  0  0
  1  6  1  0  0  0  0
  2  4  1  0  0  0  0
  3  7  1  0  0  0  0
  4  5  1  0  0  0  0
  6  2  1  0  0  0  0
  7  8  1  0  0  0  0
  8  9  1  0  0  0  0
  9 10  1  0  0  0  0
 10 11  1  0  0  0  0
 10 12  1  0  0  0  0
 11 13  1  0  0  0  0
 13 15  1  0  0  0  0
 14 12  1  0  0  0  0
 15 14  1  0  0  0  0
 16 18  2  0  0  0  0
 16 22  1  0  0  0  0
 17 23  1  0  0  0  0
 17 29  1  0  0  0  0
 18 19  1  0  0  0  0
 18 26  1  0  0  0  0
 19 20  2  0  0  0  0
 20  3  1  0  0  0  0
 20 21  1  0  0  0  0
 21  5  1  0  0  0  0
 21 22  2  0  0  0  0
 23 24  2  0  0  0  0
 24 30  1  0  0  0  0
 25 26  2  0  0  0  0
 25 30  1  0  0  0  0
 26 27  1  0  0  0  0
 27 28  2  0  0  0  0
 28 29  1  0  0  0  0
 29 30  2  0  0  0  0
M  END
>  <CHROM.1>
60.30990414,-60.56065201,67.53766329,169.31577499,-177.00985631,-172.91685788
64.79612509,169.91607404,43.64467810,32.55713766,-58.77547967,-9.49992587
-6.76953489,8.22320974,0.05964807,-1.07288259,2.20800919

>  <Name>
1uts_lig

>  <RI>
0

>  <Rbt.Current_Directory>
/home/itssahil/PROJECTS/Mol_Feturizer/New_Systems/rnas/1uts

>  <Rbt.Executable>
rbdock ($Id: //depot/dev/client3/rdock/2013.1/src/exe/rbdock.cxx#4 $)

>  <Rbt.Library>
libRbt.so (2013.1, Build901 2013/11/27)

>  <Rbt.Parameter_File>
/export/apps/rDock/src/rDock_2013.1_src/data/scripts/dock_solv.prm

>  <Rbt.Receptor>
prm/blind_docking_60.prm

>  <SCORE>
-23.7065

>  <SCORE.INTER>
-25.2841

>  <SCORE.INTER.CONST>
1

>  <SCORE.INTER.POLAR>
-1.23288

>  <SCORE.INTER.ROT>
10

>  <SCORE.INTER.SOLV>
8.21111

>  <SCORE.INTER.VDW>
-25.7502

>  <SCORE.INTER.norm>
-0.842804

>  <SCORE.INTRA>
-1.25087

>  <SCORE.INTRA.DIHEDRAL>
-10.3564

>  <SCORE.INTRA.DIHEDRAL.0>
18.0451

>  <SCORE.INTRA.POLAR>
0.196815

>  <SCORE.INTRA.POLAR.0>
-0.196815

>  <SCORE.INTRA.REPUL>
0

>  <SCORE.INTRA.REPUL.0>
0

>  <SCORE.INTRA.SOLV>
-0.0748354

>  <SCORE.INTRA.SOLV.lig_0>
-14.7906

>  <SCORE.INTRA.VDW>
3.29557

>  <SCORE.INTRA.VDW.0>
-0.411701

>  <SCORE.INTRA.norm>
-0.0416958

>  <SCORE.RESTR>
2.82849

>  <SCORE.RESTR.CAVITY>
2.82849

>  <SCORE.RESTR.norm>
0.094283

>  <SCORE.SYSTEM>
0

>  <SCORE.SYSTEM.CONST>
0

>  <SCORE.SYSTEM.DIHEDRAL>
0

>  <SCORE.SYSTEM.SOLV>
0

>  <SCORE.SYSTEM.norm>
0

>  <SCORE.heavy>
30

>  <SCORE.norm>
-0.790217

>  <RMSD>
17.290

$$$$
1uts_lig
 OpenBabel11021811413D
libRbt.so/2013.1/901 2013/11/27
 30 33  0  0  0  0  0  0  0  0999 V2000
   -4.9680  -10.1413    4.8015 N   0  0  0  0  0  0  0  0  0  0  0  0
   -7.2646  -11.0141    4.8350 C   0  0  0  0  0  0  0  0  0  0  0  0
   -8.0429   -9.0640    7.4772 C   0  0  0  0  0  0  0  0  0  0  0  0
   -7.7424   -9.5730    4.6349 C   0  0  0  0  0  0  0  0  0  0  0  0
   -9.1679   -9.5178    4.7921 O   0  0  0  0  0  0  0  0  0  0  0  0
   -5.8648  -11.1764    4.2395 C   0  0  0  0  0  0  0  0  0  0  0  0
   -7.6168   -8.5534    8.8000 N   0  0  0  0  0  0  0  0  0  0  0  0
   -8.6363   -8.9036    9.8242 C   0  0  0  0  0  0  0  0  0  0  0  0
   -8.5929   -7.8853   10.9673 C   0  0  0  0  0  0  0  0  0  0  0  0
   -9.6508   -6.8703   10.7633 N   0  0  0  0  0  0  0  0  0  0  0  0
   -9.2045   -5.5707   11.3427 C   0  0  0  0  0  0  0  0  0  0  0  0
  -10.9080   -7.3280   11.4196 C   0  0  0  0  0  0  0  0  0  0  0  0
  -10.3025   -4.5148   11.1360 C   0  0  0  0  0  0  0  0  0  0  0  0
  -12.0072   -6.2697   11.2165 C   0  0  0  0  0  0  0  0  0  0  0  0
  -11.5598   -4.9714   11.7933 N   0  0  0  0  0  0  0  0  0  0  0  0
  -10.8332   -6.2366    5.6239 C   0  0  0  0  0  0  0  0  0  0  0  0
  -11.7104   -1.2877    9.6807 N   0  0  0  0  0  0  0  0  0  0  0  0
  -10.3293   -5.9906    6.9234 C   0  0  0  0  0  0  0  0  0  0  0  0
   -9.4258   -6.9111    7.5183 C   0  0  0  0  0  0  0  0  0  0  0  0
   -9.0235   -8.0774    6.8114 C   0  0  0  0  0  0  0  0  0  0  0  0
   -9.5455   -8.3318    5.5076 C   0  0  0  0  0  0  0  0  0  0  0  0
  -10.4472   -7.4052    4.9159 C   0  0  0  0  0  0  0  0  0  0  0  0
  -10.3941   -0.8282    9.9130 C   0  0  0  0  0  0  0  0  0  0  0  0
   -9.4432   -1.7347    9.3919 C   0  0  0  0  0  0  0  0  0  0  0  0
   -9.7568   -3.9435    8.1322 C   0  0  0  0  0  0  0  0  0  0  0  0
  -10.7317   -4.8393    7.6149 C   0  0  0  0  0  0  0  0  0  0  0  0
  -12.1149   -4.5620    7.7937 C   0  0  0  0  0  0  0  0  0  0  0  0
  -12.5216   -3.3899    8.4867 C   0  0  0  0  0  0  0  0  0  0  0  0
  -11.5386   -2.4835    8.9939 C   0  0  0  0  0  0  0  0  0  0  0  0
  -10.1696   -2.7565    8.8185 C   0  0  0  0  0  0  0  0  0  0  0  0
  1  6  1  0  0  0  0
  2  4  1  0  0  0  0
  3  7  1  0  0  0  0
  4  5  1  0  0  0  0
  6  2  1  0  0  0  0
  7  8  1  0  0  0  0
  8  9  1  0  0  0  0
  9 10  1  0  0  0  0
 10 11  1  0  0  0  0
 10 12  1  0  0  0  0
 11 13  1  0  0  0  0
 13 15  1  0  0  0  0
 14 12  1  0  0  0  0
 15 14  1  0  0  0  0
 16 18  2  0  0  0  0
 16 22  1  0  0  0  0
 17 23  1  0  0  0  0
 17 29  1  0  0  0  0
 18 19  1  0  0  0  0
 18 26  1  0  0  0  0
 19 20  2  0  0  0  0
 20  3  1  0  0  0  0
 20 21  1  0  0  0  0
 21  5  1  0  0  0  0
 21 22  2  0  0  0  0
 23 24  2  0  0  0  0
 24 30  1  0  0  0  0
 25 26  2  0  0  0  0
 25 30  1  0  0  0  0
 26 27  1  0  0  0  0
 27 28  2  0  0  0  0
 28 29  1  0  0  0  0
 29 30  2  0  0  0  0
M  END
>  <CHROM.1>
-74.53593449,161.80302524,83.15343025,140.14493425,53.35624544,-153.12493783
97.84087631,-149.63961790,-125.85050020,-2.83257550,-57.67843980,-9.58245976
-6.43358275,8.15981658,0.44345455,1.08945702,-1.44558107

>  <Name>
1uts_lig

>  <RI>
0

>  <Rbt.Current_Directory>
/home/itssahil/PROJECTS/Mol_Feturizer/New_Systems/rnas/1uts

>  <Rbt.Executable>
rbdock ($Id: //depot/dev/client3/rdock/2013.1/src/exe/rbdock.cxx#4 $)

>  <Rbt.Library>
libRbt.so (2013.1, Build901 2013/11/27)

>  <Rbt.Parameter_File>
/export/apps/rDock/src/rDock_2013.1_src/data/scripts/dock_solv.prm

>  <Rbt.Receptor>
prm/blind_docking_100.prm

>  <SCORE>
-26.2791

>  <SCORE.INTER>
-32.6574

>  <SCORE.INTER.CONST>
1

>  <SCORE.INTER.POLAR>
-3.31574

>  <SCORE.INTER.ROT>
10

>  <SCORE.INTER.SOLV>
9.23768

>  <SCORE.INTER.VDW>
-24.065

>  <SCORE.INTER.norm>
-1.08858

>  <SCORE.INTRA>
4.71606

>  <SCORE.INTRA.DIHEDRAL>
4.77061

>  <SCORE.INTRA.DIHEDRAL.0>
18.0451

>  <SCORE.INTRA.POLAR>
0.196815

>  <SCORE.INTRA.POLAR.0>
-0.196815

>  <SCORE.INTRA.REPUL>
0

>  <SCORE.INTRA.REPUL.0>
0

>  <SCORE.INTRA.SOLV>
0.421975

>  <SCORE.INTRA.SOLV.lig_0>
-14.7906

>  <SCORE.INTRA.VDW>
1.45059

>  <SCORE.INTRA.VDW.0>
-0.411701

>  <SCORE.INTRA.norm>
0.157202

>  <SCORE.RESTR>
1.66231

>  <SCORE.RESTR.CAVITY>
1.66231

>  <SCORE.RESTR.norm>
0.0554102

>  <SCORE.SYSTEM>
0

>  <SCORE.SYSTEM.CONST>
0

>  <SCORE.SYSTEM.DIHEDRAL>
0

>  <SCORE.SYSTEM.SOLV>
0

>  <SCORE.SYSTEM.norm>
0

>  <SCORE.heavy>
30

>  <SCORE.norm>
-0.875969

>  <RMSD>
17.300

$$$$
1uts_lig
 OpenBabel11021811413D
libRbt.so/2013.1/901 2013/11/27
 30 33  0  0  0  0  0  0  0  0999 V2000
   -5.3178  -12.5160    3.7601 N   0  0  0  0  0  0  0  0  0  0  0  0
   -5.6675  -10.6255    5.2902 C   0  0  0  0  0  0  0  0  0  0  0  0
   -7.8209   -9.1066    8.0942 C   0  0  0  0  0  0  0  0  0  0  0  0
   -6.2881   -9.2315    5.4190 C   0  0  0  0  0  0  0  0  0  0  0  0
   -7.6970   -9.3115    5.1576 O   0  0  0  0  0  0  0  0  0  0  0  0
   -5.9530  -11.1858    3.8956 C   0  0  0  0  0  0  0  0  0  0  0  0
   -7.4453   -8.4876    9.3856 N   0  0  0  0  0  0  0  0  0  0  0  0
   -8.6500   -8.3559   10.2471 C   0  0  0  0  0  0  0  0  0  0  0  0
   -8.8035   -6.9022   10.7040 C   0  0  0  0  0  0  0  0  0  0  0  0
  -10.1715   -6.6927   11.2291 N   0  0  0  0  0  0  0  0  0  0  0  0
  -11.1440   -6.7334   10.0993 C   0  0  0  0  0  0  0  0  0  0  0  0
  -10.2375   -5.3765   11.9249 C   0  0  0  0  0  0  0  0  0  0  0  0
  -12.5658   -6.5123   10.6404 C   0  0  0  0  0  0  0  0  0  0  0  0
  -11.6618   -5.1523   12.4640 C   0  0  0  0  0  0  0  0  0  0  0  0
  -12.6328   -5.1955   11.3354 N   0  0  0  0  0  0  0  0  0  0  0  0
   -9.6602   -6.1063    5.4808 C   0  0  0  0  0  0  0  0  0  0  0  0
  -12.3175   -1.5316    9.1851 N   0  0  0  0  0  0  0  0  0  0  0  0
   -9.7578   -5.9807    6.8872 C   0  0  0  0  0  0  0  0  0  0  0  0
   -9.1599   -6.9567    7.7283 C   0  0  0  0  0  0  0  0  0  0  0  0
   -8.4609   -8.0580    7.1621 C   0  0  0  0  0  0  0  0  0  0  0  0
   -8.3778   -8.1915    5.7435 C   0  0  0  0  0  0  0  0  0  0  0  0
   -8.9756   -7.2098    4.9066 C   0  0  0  0  0  0  0  0  0  0  0  0
  -11.2304   -1.0928    9.9747 C   0  0  0  0  0  0  0  0  0  0  0  0
  -10.1175   -1.9509    9.8236 C   0  0  0  0  0  0  0  0  0  0  0  0
   -9.8064   -4.0441    8.3794 C   0  0  0  0  0  0  0  0  0  0  0  0
  -10.4497   -4.8930    7.4381 C   0  0  0  0  0  0  0  0  0  0  0  0
  -11.7932   -4.6328    7.0513 C   0  0  0  0  0  0  0  0  0  0  0  0
  -12.4905   -3.5245    7.6036 C   0  0  0  0  0  0  0  0  0  0  0  0
  -11.8359   -2.6642    8.5398 C   0  0  0  0  0  0  0  0  0  0  0  0
  -10.5070   -2.9204    8.9241 C   0  0  0  0  0  0  0  0  0  0  0  0
  1  6  1  0  0  0  0
  2  4  1  0  0  0  0
  3  7  1  0  0  0  0
  4  5  1  0  0  0  0
  6  2  1  0  0  0  0
  7  8  1  0  0  0  0
  8  9  1  0  0  0  0
  9 10  1  0  0  0  0
 10 11  1  0  0  0  0
 10 12  1  0  0  0  0
 11 13  1  0  0  0  0
 13 15  1  0  0  0  0
 14 12  1  0  0  0  0
 15 14  1  0  0  0  0
 16 18  2  0  0  0  0
 16 22  1  0  0  0  0
 17 23  1  0  0  0  0
 17 29  1  0  0  0  0
 18 19  1  0  0  0  0
 18 26  1  0  0  0  0
 19 20  2  0  0  0  0
 20  3  1  0  0  0  0
 20 21  1  0  0  0  0
 21  5  1  0  0  0  0
 21 22  2  0  0  0  0
 23 24  2  0  0  0  0
 24 30  1  0  0  0  0
 25 26  2  0  0  0  0
 25 30  1  0  0  0  0
 26 27  1  0  0  0  0
 27 28  2  0  0  0  0
 28 29  1  0  0  0  0
 29 30  2  0  0  0  0
M  END
>  <CHROM.1>
-176.83818546,57.27545740,79.31972535,158.20742341,178.32746565,-125.75489859
164.29655592,-70.54531674,-125.09911866,-28.66298623,-67.83627703,-9.51380834
-6.48905104,8.16628756,0.20690307,1.01451134,-1.18280457

>  <Name>
1uts_lig

>  <RI>
0

>  <Rbt.Current_Directory>
/home/itssahil/PROJECTS/Mol_Feturizer/New_Systems/rnas/1uts

>  <Rbt.Executable>
rbdock ($Id: //depot/dev/client3/rdock/2013.1/src/exe/rbdock.cxx#4 $)

>  <Rbt.Library>
libRbt.so (2013.1, Build901 2013/11/27)

>  <Rbt.Parameter_File>
/export/apps/rDock/src/rDock_2013.1_src/data/scripts/dock_solv.prm

>  <Rbt.Receptor>
prm/blind_docking_100.prm

>  <SCORE>
-23.4977

>  <SCORE.INTER>
-23.6558

>  <SCORE.INTER.CONST>
1

>  <SCORE.INTER.POLAR>
-1.5174

>  <SCORE.INTER.ROT>
10

>  <SCORE.INTER.SOLV>
8.83698

>  <SCORE.INTER.VDW>
-23.9249

>  <SCORE.INTER.norm>
-0.788526

>  <SCORE.INTRA>
-0.65863

>  <SCORE.INTRA.DIHEDRAL>
-2.29071

>  <SCORE.INTRA.DIHEDRAL.0>
18.0451

>  <SCORE.INTRA.POLAR>
0.196815

>  <SCORE.INTRA.POLAR.0>
-0.196815

>  <SCORE.INTRA.REPUL>
0

>  <SCORE.INTRA.REPUL.0>
0

>  <SCORE.INTRA.SOLV>
-0.0458398

>  <SCORE.INTRA.SOLV.lig_0>
-14.7906

>  <SCORE.INTRA.VDW>
-0.159528

>  <SCORE.INTRA.VDW.0>
-0.411701

>  <SCORE.INTRA.norm>
-0.0219543

>  <SCORE.RESTR>
0.816682

>  <SCORE.RESTR.CAVITY>
0.816682

>  <SCORE.RESTR.norm>
0.0272227

>  <SCORE.SYSTEM>
0

>  <SCORE.SYSTEM.CONST>
0

>  <SCORE.SYSTEM.DIHEDRAL>
0

>  <SCORE.SYSTEM.SOLV>
0

>  <SCORE.SYSTEM.norm>
0

>  <SCORE.heavy>
30

>  <SCORE.norm>
-0.783258

>  <RMSD>
17.303

$$$$
1uts_lig
 OpenBabel11021811413D
libRbt.so/2013.1/901 2013/11/27
 30 33  0  0  0  0  0  0  0  0999 V2000
  -10.0308   -9.2528   15.5817 N   0  0  0  0  0  0  0  0  0  0  0  0
  -11.2742   -7.9253   13.9298 C   0  0  0  0  0  0  0  0  0  0  0  0
   -8.5253   -6.5180   11.4263 C   0  0  0  0  0  0  0  0  0  0  0  0
  -10.8739   -7.9164   12.4516 C   0  0  0  0  0  0  0  0  0  0  0  0
   -9.9435   -8.9807   12.2039 O   0  0  0  0  0  0  0  0  0  0  0  0
  -10.0177   -7.9960   14.7996 C   0  0  0  0  0  0  0  0  0  0  0  0
   -9.4144   -5.3947   11.0526 N   0  0  0  0  0  0  0  0  0  0  0  0
   -9.4854   -4.4184   12.1720 C   0  0  0  0  0  0  0  0  0  0  0  0
  -10.7224   -3.5306   12.0071 C   0  0  0  0  0  0  0  0  0  0  0  0
  -10.8796   -3.1647   10.5815 N   0  0  0  0  0  0  0  0  0  0  0  0
   -9.7454   -2.2883   10.1700 C   0  0  0  0  0  0  0  0  0  0  0  0
  -12.1780   -2.4578   10.3931 C   0  0  0  0  0  0  0  0  0  0  0  0
   -9.9074   -1.9031    8.6907 C   0  0  0  0  0  0  0  0  0  0  0  0
  -12.3396   -2.0682    8.9127 C   0  0  0  0  0  0  0  0  0  0  0  0
  -11.2052   -1.1950    8.5018 N   0  0  0  0  0  0  0  0  0  0  0  0
   -9.0664   -9.8599    8.6417 C   0  0  0  0  0  0  0  0  0  0  0  0
   -6.6686   -8.2753    2.8865 N   0  0  0  0  0  0  0  0  0  0  0  0
   -8.3945   -8.6865    8.2232 C   0  0  0  0  0  0  0  0  0  0  0  0
   -8.2230   -7.6072    9.1304 C   0  0  0  0  0  0  0  0  0  0  0  0
   -8.7213   -7.7027   10.4587 C   0  0  0  0  0  0  0  0  0  0  0  0
   -9.4129   -8.8802   10.8737 C   0  0  0  0  0  0  0  0  0  0  0  0
   -9.5788   -9.9587    9.9621 C   0  0  0  0  0  0  0  0  0  0  0  0
   -7.9497   -8.2103    2.2929 C   0  0  0  0  0  0  0  0  0  0  0  0
   -8.9653   -8.3007    3.2717 C   0  0  0  0  0  0  0  0  0  0  0  0
   -8.8141   -8.5192    5.8199 C   0  0  0  0  0  0  0  0  0  0  0  0
   -7.9071   -8.5991    6.9115 C   0  0  0  0  0  0  0  0  0  0  0  0
   -6.5056   -8.5832    6.6712 C   0  0  0  0  0  0  0  0  0  0  0  0
   -6.0129   -8.4853    5.3418 C   0  0  0  0  0  0  0  0  0  0  0  0
   -6.9279   -8.3910    4.2469 C   0  0  0  0  0  0  0  0  0  0  0  0
   -8.3148   -8.4072    4.4826 C   0  0  0  0  0  0  0  0  0  0  0  0
  1  6  1  0  0  0  0
  2  4  1  0  0  0  0
  3  7  1  0  0  0  0
  4  5  1  0  0  0  0
  6  2  1  0  0  0  0
  7  8  1  0  0  0  0
  8  9  1  0  0  0  0
  9 10  1  0  0  0  0
 10 11  1  0  0  0  0
 10 12  1  0  0  0  0
 11 13  1  0  0  0  0
 13 15  1  0  0  0  0
 14 12  1  0  0  0  0
 15 14  1  0  0  0  0
 16 18  2  0  0  0  0
 16 22  1  0  0  0  0
 17 23  1  0  0  0  0
 17 29  1  0  0  0  0
 18 19  1  0  0  0  0
 18 26  1  0  0  0  0
 19 20  2  0  0  0  0
 20  3  1  0  0  0  0
 20 21  1  0  0  0  0
 21  5  1  0  0  0  0
 21 22  2  0  0  0  0
 23 24  2  0  0  0  0
 24 30  1  0  0  0  0
 25 26  2  0  0  0  0
 25 30  1  0  0  0  0
 26 27  1  0  0  0  0
 27 28  2  0  0  0  0
 28 29  1  0  0  0  0
 29 30  2  0  0  0  0
M  END
>  <CHROM.1>
82.45618814,49.31843765,165.19447548,-172.03669285,-117.18132371,-161.06434658
-40.95890754,-66.57889618,68.50755428,72.41826699,58.41331516,-9.33405202
-6.68713954,9.22073100,-2.63244667,1.18098122,-0.88679181

>  <Name>
1uts_lig

>  <RI>
0

>  <Rbt.Current_Directory>
/home/itssahil/PROJECTS/Mol_Feturizer/New_Systems/rnas/1uts

>  <Rbt.Executable>
rbdock ($Id: //depot/dev/client3/rdock/2013.1/src/exe/rbdock.cxx#4 $)

>  <Rbt.Library>
libRbt.so (2013.1, Build901 2013/11/27)

>  <Rbt.Parameter_File>
/export/apps/rDock/src/rDock_2013.1_src/data/scripts/dock_solv.prm

>  <Rbt.Receptor>
prm/blind_docking_60.prm

>  <SCORE>
-28.9036

>  <SCORE.INTER>
-36.8509

>  <SCORE.INTER.CONST>
1

>  <SCORE.INTER.POLAR>
-3.93152

>  <SCORE.INTER.ROT>
10

>  <SCORE.INTER.SOLV>
12.9924

>  <SCORE.INTER.VDW>
-26.0596

>  <SCORE.INTER.norm>
-1.22836

>  <SCORE.INTRA>
2.43738

>  <SCORE.INTRA.DIHEDRAL>
0.378958

>  <SCORE.INTRA.DIHEDRAL.0>
18.0451

>  <SCORE.INTRA.POLAR>
0.196815

>  <SCORE.INTRA.POLAR.0>
-0.196815

>  <SCORE.INTRA.REPUL>
0

>  <SCORE.INTRA.REPUL.0>
0

>  <SCORE.INTRA.SOLV>
0.143717

>  <SCORE.INTRA.SOLV.lig_0>
-14.7906

>  <SCORE.INTRA.VDW>
1.50688

>  <SCORE.INTRA.VDW.0>
-0.411701

>  <SCORE.INTRA.norm>
0.0812462

>  <SCORE.RESTR>
5.50986

>  <SCORE.RESTR.CAVITY>
5.50986

>  <SCORE.RESTR.norm>
0.183662

>  <SCORE.SYSTEM>
0

>  <SCORE.SYSTEM.CONST>
0

>  <SCORE.SYSTEM.DIHEDRAL>
0

>  <SCORE.SYSTEM.SOLV>
0

>  <SCORE.SYSTEM.norm>
0

>  <SCORE.heavy>
30

>  <SCORE.norm>
-0.963453

>  <RMSD>
17.303

$$$$
1uts_lig
 OpenBabel11021811413D
libRbt.so/2013.1/901 2013/11/27
 30 33  0  0  0  0  0  0  0  0999 V2000
   -9.9208   -9.4735   15.9221 N   0  0  0  0  0  0  0  0  0  0  0  0
  -10.5086   -7.5669   14.4880 C   0  0  0  0  0  0  0  0  0  0  0  0
   -9.4858   -5.4010   10.2563 C   0  0  0  0  0  0  0  0  0  0  0  0
   -9.9455   -8.1435   13.1858 C   0  0  0  0  0  0  0  0  0  0  0  0
  -10.5435   -7.4692   12.0688 O   0  0  0  0  0  0  0  0  0  0  0  0
   -9.6564   -8.0394   15.6673 C   0  0  0  0  0  0  0  0  0  0  0  0
   -9.1362   -5.1499   11.6729 N   0  0  0  0  0  0  0  0  0  0  0  0
   -8.2975   -3.9261   11.7725 C   0  0  0  0  0  0  0  0  0  0  0  0
   -9.1805   -2.7184   12.0998 C   0  0  0  0  0  0  0  0  0  0  0  0
  -10.3260   -2.6774   11.1632 N   0  0  0  0  0  0  0  0  0  0  0  0
   -9.8181   -2.5078    9.7714 C   0  0  0  0  0  0  0  0  0  0  0  0
  -11.2244   -1.5465   11.5304 C   0  0  0  0  0  0  0  0  0  0  0  0
  -11.0054   -2.4610    8.7960 C   0  0  0  0  0  0  0  0  0  0  0  0
  -12.4118   -1.4964   10.5521 C   0  0  0  0  0  0  0  0  0  0  0  0
  -11.9037   -1.3294    9.1621 N   0  0  0  0  0  0  0  0  0  0  0  0
   -9.2083   -9.6727    9.3132 C   0  0  0  0  0  0  0  0  0  0  0  0
   -6.5815  -10.4714    3.5059 N   0  0  0  0  0  0  0  0  0  0  0  0
   -8.7037   -8.7097    8.4070 C   0  0  0  0  0  0  0  0  0  0  0  0
   -8.7973   -7.3271    8.7186 C   0  0  0  0  0  0  0  0  0  0  0  0
   -9.3934   -6.9073    9.9393 C   0  0  0  0  0  0  0  0  0  0  0  0
   -9.9163   -7.8793   10.8442 C   0  0  0  0  0  0  0  0  0  0  0  0
   -9.8170   -9.2621   10.5284 C   0  0  0  0  0  0  0  0  0  0  0  0
   -7.7253  -11.1732    3.0622 C   0  0  0  0  0  0  0  0  0  0  0  0
   -8.7611  -11.1092    4.0217 C   0  0  0  0  0  0  0  0  0  0  0  0
   -8.8578   -9.9404    6.2996 C   0  0  0  0  0  0  0  0  0  0  0  0
   -8.1186   -9.1311    7.2046 C   0  0  0  0  0  0  0  0  0  0  0  0
   -6.7880   -8.7442    6.8852 C   0  0  0  0  0  0  0  0  0  0  0  0
   -6.1993   -9.1644    5.6619 C   0  0  0  0  0  0  0  0  0  0  0  0
   -6.9504   -9.9670    4.7472 C   0  0  0  0  0  0  0  0  0  0  0  0
   -8.2667  -10.3512    5.0617 C   0  0  0  0  0  0  0  0  0  0  0  0
  1  6  1  0  0  0  0
  2  4  1  0  0  0  0
  3  7  1  0  0  0  0
  4  5  1  0  0  0  0
  6  2  1  0  0  0  0
  7  8  1  0  0  0  0
  8  9  1  0  0  0  0
  9 10  1  0  0  0  0
 10 11  1  0  0  0  0
 10 12  1  0  0  0  0
 11 13  1  0  0  0  0
 13 15  1  0  0  0  0
 14 12  1  0  0  0  0
 15 14  1  0  0  0  0
 16 18  2  0  0  0  0
 16 22  1  0  0  0  0
 17 23  1  0  0  0  0
 17 29  1  0  0  0  0
 18 19  1  0  0  0  0
 18 26  1  0  0  0  0
 19 20  2  0  0  0  0
 20  3  1  0  0  0  0
 20 21  1  0  0  0  0
 21  5  1  0  0  0  0
 21 22  2  0  0  0  0
 23 24  2  0  0  0  0
 24 30  1  0  0  0  0
 25 26  2  0  0  0  0
 25 30  1  0  0  0  0
 26 27  1  0  0  0  0
 27 28  2  0  0  0  0
 28 29  1  0  0  0  0
 29 30  2  0  0  0  0
M  END
>  <CHROM.1>
-53.83860910,-166.98748732,139.04457057,173.11236595,-72.73219702,95.70794229
-50.15197958,-62.14033560,56.84940445,-137.43846156,-126.83592096,-9.30853755
-6.87232892,9.57148265,-2.91674630,1.26737071,-0.94877329

>  <Name>
1uts_lig

>  <RI>
0

>  <Rbt.Current_Directory>
/home/itssahil/PROJECTS/Mol_Feturizer/New_Systems/rnas/1uts

>  <Rbt.Executable>
rbdock ($Id: //depot/dev/client3/rdock/2013.1/src/exe/rbdock.cxx#4 $)

>  <Rbt.Library>
libRbt.so (2013.1, Build901 2013/11/27)

>  <Rbt.Parameter_File>
/export/apps/rDock/src/rDock_2013.1_src/data/scripts/dock_solv.prm

>  <Rbt.Receptor>
prm/blind_docking_80.prm

>  <SCORE>
-35.3769

>  <SCORE.INTER>
-37.4992

>  <SCORE.INTER.CONST>
1

>  <SCORE.INTER.POLAR>
-3.34128

>  <SCORE.INTER.ROT>
10

>  <SCORE.INTER.SOLV>
9.68436

>  <SCORE.INTER.VDW>
-27.3567

>  <SCORE.INTER.norm>
-1.24997

>  <SCORE.INTRA>
1.83913

>  <SCORE.INTRA.DIHEDRAL>
-3.8387

>  <SCORE.INTRA.DIHEDRAL.0>
18.0451

>  <SCORE.INTRA.POLAR>
0.196815

>  <SCORE.INTRA.POLAR.0>
-0.196815

>  <SCORE.INTRA.REPUL>
0

>  <SCORE.INTRA.REPUL.0>
0

>  <SCORE.INTRA.SOLV>
0.166816

>  <SCORE.INTRA.SOLV.lig_0>
-14.7906

>  <SCORE.INTRA.VDW>
3.0059

>  <SCORE.INTRA.VDW.0>
-0.411701

>  <SCORE.INTRA.norm>
0.0613043

>  <SCORE.RESTR>
0.283265

>  <SCORE.RESTR.CAVITY>
0.283265

>  <SCORE.RESTR.norm>
0.00944217

>  <SCORE.SYSTEM>
0

>  <SCORE.SYSTEM.CONST>
0

>  <SCORE.SYSTEM.DIHEDRAL>
0

>  <SCORE.SYSTEM.SOLV>
0

>  <SCORE.SYSTEM.norm>
0

>  <SCORE.heavy>
30

>  <SCORE.norm>
-1.17923

>  <RMSD>
17.319

$$$$
1uts_lig
 OpenBabel11021811413D
libRbt.so/2013.1/901 2013/11/27
 30 33  0  0  0  0  0  0  0  0999 V2000
  -10.4224   -1.0152   10.6473 N   0  0  0  0  0  0  0  0  0  0  0  0
  -11.4148   -2.9800    9.5555 C   0  0  0  0  0  0  0  0  0  0  0  0
   -9.6565   -6.0172    9.7955 C   0  0  0  0  0  0  0  0  0  0  0  0
  -11.1843   -3.7885    8.2755 C   0  0  0  0  0  0  0  0  0  0  0  0
   -9.7926   -3.7427    7.9276 O   0  0  0  0  0  0  0  0  0  0  0  0
  -10.9090   -1.5502    9.3556 C   0  0  0  0  0  0  0  0  0  0  0  0
   -8.8673   -6.9689   10.6101 N   0  0  0  0  0  0  0  0  0  0  0  0
   -9.7307   -8.1041   11.0307 C   0  0  0  0  0  0  0  0  0  0  0  0
  -10.9905   -7.5694   11.7181 C   0  0  0  0  0  0  0  0  0  0  0  0
  -10.8807   -7.7782   13.1793 N   0  0  0  0  0  0  0  0  0  0  0  0
   -9.7374   -6.9788   13.7064 C   0  0  0  0  0  0  0  0  0  0  0  0
  -10.6737   -9.2277   13.4572 C   0  0  0  0  0  0  0  0  0  0  0  0
   -9.6178   -7.1963   15.2235 C   0  0  0  0  0  0  0  0  0  0  0  0
  -10.5501   -9.4461   14.9759 C   0  0  0  0  0  0  0  0  0  0  0  0
   -9.4096   -8.6456   15.5019 N   0  0  0  0  0  0  0  0  0  0  0  0
   -8.5672   -6.4195    5.5686 C   0  0  0  0  0  0  0  0  0  0  0  0
   -6.4331  -12.3966    4.4835 N   0  0  0  0  0  0  0  0  0  0  0  0
   -8.4707   -7.5327    6.4374 C   0  0  0  0  0  0  0  0  0  0  0  0
   -8.8248   -7.3953    7.8061 C   0  0  0  0  0  0  0  0  0  0  0  0
   -9.2789   -6.1439    8.3058 C   0  0  0  0  0  0  0  0  0  0  0  0
   -9.3599   -5.0186    7.4316 C   0  0  0  0  0  0  0  0  0  0  0  0
   -9.0071   -5.1628    6.0618 C   0  0  0  0  0  0  0  0  0  0  0  0
   -5.0731  -12.0135    4.4446 C   0  0  0  0  0  0  0  0  0  0  0  0
   -4.9134  -10.6738    4.8658 C   0  0  0  0  0  0  0  0  0  0  0  0
   -6.6383   -8.9597    5.6721 C   0  0  0  0  0  0  0  0  0  0  0  0
   -8.0208   -8.7630    5.9378 C   0  0  0  0  0  0  0  0  0  0  0  0
   -8.9449   -9.8180    5.7028 C   0  0  0  0  0  0  0  0  0  0  0  0
   -8.4863  -11.0676    5.2051 C   0  0  0  0  0  0  0  0  0  0  0  0
   -7.0930  -11.2669    4.9519 C   0  0  0  0  0  0  0  0  0  0  0  0
   -6.1773  -10.2241    5.1833 C   0  0  0  0  0  0  0  0  0  0  0  0
  1  6  1  0  0  0  0
  2  4  1  0  0  0  0
  3  7  1  0  0  0  0
  4  5  1  0  0  0  0
  6  2  1  0  0  0  0
  7  8  1  0  0  0  0
  8  9  1  0  0  0  0
  9 10  1  0  0  0  0
 10 11  1  0  0  0  0
 10 12  1  0  0  0  0
 11 13  1  0  0  0  0
 13 15  1  0  0  0  0
 14 12  1  0  0  0  0
 15 14  1  0  0  0  0
 16 18  2  0  0  0  0
 16 22  1  0  0  0  0
 17 23  1  0  0  0  0
 17 29  1  0  0  0  0
 18 19  1  0  0  0  0
 18 26  1  0  0  0  0
 19 20  2  0  0  0  0
 20  3  1  0  0  0  0
 20 21  1  0  0  0  0
 21  5  1  0  0  0  0
 21 22  2  0  0  0  0
 23 24  2  0  0  0  0
 24 30  1  0  0  0  0
 25 26  2  0  0  0  0
 25 30  1  0  0  0  0
 26 27  1  0  0  0  0
 27 28  2  0  0  0  0
 28 29  1  0  0  0  0
 29 30  2  0  0  0  0
M  END
>  <CHROM.1>
-51.38846068,56.31965804,-105.46947846,141.05780889,-148.69703006,-53.27725743
-105.11061710,63.67282098,75.67371785,29.21619154,-68.63609611,-9.03691250
-7.36510936,8.95473858,2.82523847,-1.16142485,2.25677281

>  <Name>
1uts_lig

>  <RI>
0

>  <Rbt.Current_Directory>
/home/itssahil/PROJECTS/Mol_Feturizer/New_Systems/rnas/1uts

>  <Rbt.Executable>
rbdock ($Id: //depot/dev/client3/rdock/2013.1/src/exe/rbdock.cxx#4 $)

>  <Rbt.Library>
libRbt.so (2013.1, Build901 2013/11/27)

>  <Rbt.Parameter_File>
/export/apps/rDock/src/rDock_2013.1_src/data/scripts/dock_solv.prm

>  <Rbt.Receptor>
prm/blind_docking_60.prm

>  <SCORE>
-16.0725

>  <SCORE.INTER>
-31.8281

>  <SCORE.INTER.CONST>
1

>  <SCORE.INTER.POLAR>
-1.01053

>  <SCORE.INTER.ROT>
10

>  <SCORE.INTER.SOLV>
9.50548

>  <SCORE.INTER.VDW>
-31.2855

>  <SCORE.INTER.norm>
-1.06094

>  <SCORE.INTRA>
10.5638

>  <SCORE.INTRA.DIHEDRAL>
7.69506

>  <SCORE.INTRA.DIHEDRAL.0>
18.0451

>  <SCORE.INTRA.POLAR>
0.196815

>  <SCORE.INTRA.POLAR.0>
-0.196815

>  <SCORE.INTRA.REPUL>
0

>  <SCORE.INTRA.REPUL.0>
0

>  <SCORE.INTRA.SOLV>
-0.332898

>  <SCORE.INTRA.SOLV.lig_0>
-14.7906

>  <SCORE.INTRA.VDW>
6.21355

>  <SCORE.INTRA.VDW.0>
-0.411701

>  <SCORE.INTRA.norm>
0.352127

>  <SCORE.RESTR>
5.19179

>  <SCORE.RESTR.CAVITY>
5.19179

>  <SCORE.RESTR.norm>
0.17306

>  <SCORE.SYSTEM>
0

>  <SCORE.SYSTEM.CONST>
0

>  <SCORE.SYSTEM.DIHEDRAL>
0

>  <SCORE.SYSTEM.SOLV>
0

>  <SCORE.SYSTEM.norm>
0

>  <SCORE.heavy>
30

>  <SCORE.norm>
-0.535751

>  <RMSD>
17.333

$$$$
1uts_lig
 OpenBabel11021811413D
libRbt.so/2013.1/901 2013/11/27
 30 33  0  0  0  0  0  0  0  0999 V2000
   -9.5114   -3.4296   11.4699 N   0  0  0  0  0  0  0  0  0  0  0  0
  -11.1139   -2.5490    9.8287 C   0  0  0  0  0  0  0  0  0  0  0  0
  -11.6780   -6.5847    8.4728 C   0  0  0  0  0  0  0  0  0  0  0  0
  -10.3139   -3.0079    8.6061 C   0  0  0  0  0  0  0  0  0  0  0  0
  -11.1637   -3.7770    7.7424 O   0  0  0  0  0  0  0  0  0  0  0  0
  -10.1531   -2.1948   10.9651 C   0  0  0  0  0  0  0  0  0  0  0  0
  -11.0187   -7.1962    9.6491 N   0  0  0  0  0  0  0  0  0  0  0  0
   -9.6703   -6.5977    9.8348 C   0  0  0  0  0  0  0  0  0  0  0  0
   -8.8806   -7.4100   10.8654 C   0  0  0  0  0  0  0  0  0  0  0  0
   -9.6765   -7.5373   12.1069 N   0  0  0  0  0  0  0  0  0  0  0  0
   -8.7645   -7.4743   13.2850 C   0  0  0  0  0  0  0  0  0  0  0  0
  -10.4153   -8.8315   12.0897 C   0  0  0  0  0  0  0  0  0  0  0  0
   -9.5873   -7.6101   14.5764 C   0  0  0  0  0  0  0  0  0  0  0  0
  -11.2367   -8.9703   13.3841 C   0  0  0  0  0  0  0  0  0  0  0  0
  -10.3255   -8.9048   14.5604 N   0  0  0  0  0  0  0  0  0  0  0  0
   -8.6781   -5.4813    5.4733 C   0  0  0  0  0  0  0  0  0  0  0  0
   -5.9229  -10.9843    3.4205 N   0  0  0  0  0  0  0  0  0  0  0  0
   -8.8821   -6.8410    5.8088 C   0  0  0  0  0  0  0  0  0  0  0  0
   -9.8555   -7.1917    6.7820 C   0  0  0  0  0  0  0  0  0  0  0  0
  -10.6279   -6.1813    7.4181 C   0  0  0  0  0  0  0  0  0  0  0  0
  -10.4091   -4.8096    7.0901 C   0  0  0  0  0  0  0  0  0  0  0  0
   -9.4355   -4.4648    6.1129 C   0  0  0  0  0  0  0  0  0  0  0  0
   -6.2771  -12.0020    4.3352 C   0  0  0  0  0  0  0  0  0  0  0  0
   -7.1258  -11.4987    5.3472 C   0  0  0  0  0  0  0  0  0  0  0  0
   -8.0793   -9.1488    5.7115 C   0  0  0  0  0  0  0  0  0  0  0  0
   -8.1158   -7.8315    5.1786 C   0  0  0  0  0  0  0  0  0  0  0  0
   -7.3796   -7.5223    4.0019 C   0  0  0  0  0  0  0  0  0  0  0  0
   -6.6105   -8.5295    3.3587 C   0  0  0  0  0  0  0  0  0  0  0  0
   -6.5870   -9.8572    3.8894 C   0  0  0  0  0  0  0  0  0  0  0  0
   -7.3142  -10.1649    5.0538 C   0  0  0  0  0  0  0  0  0  0  0  0
  1  6  1  0  0  0  0
  2  4  1  0  0  0  0
  3  7  1  0  0  0  0
  4  5  1  0  0  0  0
  6  2  1  0  0  0  0
  7  8  1  0  0  0  0
  8  9  1  0  0  0  0
  9 10  1  0  0  0  0
 10 11  1  0  0  0  0
 10 12  1  0  0  0  0
 11 13  1  0  0  0  0
 13 15  1  0  0  0  0
 14 12  1  0  0  0  0
 15 14  1  0  0  0  0
 16 18  2  0  0  0  0
 16 22  1  0  0  0  0
 17 23  1  0  0  0  0
 17 29  1  0  0  0  0
 18 19  1  0  0  0  0
 18 26  1  0  0  0  0
 19 20  2  0  0  0  0
 20  3  1  0  0  0  0
 20 21  1  0  0  0  0
 21  5  1  0  0  0  0
 21 22  2  0  0  0  0
 23 24  2  0  0  0  0
 24 30  1  0  0  0  0
 25 26  2  0  0  0  0
 25 30  1  0  0  0  0
 26 27  1  0  0  0  0
 27 28  2  0  0  0  0
 28 29  1  0  0  0  0
 29 30  2  0  0  0  0
M  END
>  <CHROM.1>
63.61935563,159.38723628,31.23834384,-146.48903976,-69.21680194,-168.84297891
-53.32972129,-143.40741647,165.35689312,64.59538217,111.13323751,-9.21958011
-7.09816780,8.40670464,2.65195805,-1.16577471,2.20553732

>  <Name>
1uts_lig

>  <RI>
0

>  <Rbt.Current_Directory>
/home/itssahil/PROJECTS/Mol_Feturizer/New_Systems/rnas/1uts

>  <Rbt.Executable>
rbdock ($Id: //depot/dev/client3/rdock/2013.1/src/exe/rbdock.cxx#4 $)

>  <Rbt.Library>
libRbt.so (2013.1, Build901 2013/11/27)

>  <Rbt.Parameter_File>
/export/apps/rDock/src/rDock_2013.1_src/data/scripts/dock_solv.prm

>  <Rbt.Receptor>
prm/blind_docking_100.prm

>  <SCORE>
-10.1107

>  <SCORE.INTER>
-15.6375

>  <SCORE.INTER.CONST>
1

>  <SCORE.INTER.POLAR>
-0.939143

>  <SCORE.INTER.ROT>
10

>  <SCORE.INTER.SOLV>
8.12994

>  <SCORE.INTER.VDW>
-20.2712

>  <SCORE.INTER.norm>
-0.52125

>  <SCORE.INTRA>
2.40389

>  <SCORE.INTRA.DIHEDRAL>
-2.24733

>  <SCORE.INTRA.DIHEDRAL.0>
18.0451

>  <SCORE.INTRA.POLAR>
0.196815

>  <SCORE.INTRA.POLAR.0>
-0.196815

>  <SCORE.INTRA.REPUL>
0.00162397

>  <SCORE.INTRA.REPUL.0>
0

>  <SCORE.INTRA.SOLV>
0.221094

>  <SCORE.INTRA.SOLV.lig_0>
-14.7906

>  <SCORE.INTRA.VDW>
2.73971

>  <SCORE.INTRA.VDW.0>
-0.411701

>  <SCORE.INTRA.norm>
0.0801296

>  <SCORE.RESTR>
3.12291

>  <SCORE.RESTR.CAVITY>
3.12291

>  <SCORE.RESTR.norm>
0.104097

>  <SCORE.SYSTEM>
0

>  <SCORE.SYSTEM.CONST>
0

>  <SCORE.SYSTEM.DIHEDRAL>
0

>  <SCORE.SYSTEM.SOLV>
0

>  <SCORE.SYSTEM.norm>
0

>  <SCORE.heavy>
30

>  <SCORE.norm>
-0.337024

>  <RMSD>
17.334

$$$$
1uts_lig
 OpenBabel11021811413D
libRbt.so/2013.1/901 2013/11/27
 30 33  0  0  0  0  0  0  0  0999 V2000
   -8.5131   -1.7756   11.8879 N   0  0  0  0  0  0  0  0  0  0  0  0
  -10.2096   -2.2959   10.1884 C   0  0  0  0  0  0  0  0  0  0  0  0
  -13.4183   -4.9760    7.2706 C   0  0  0  0  0  0  0  0  0  0  0  0
  -10.7972   -1.8544    8.8449 C   0  0  0  0  0  0  0  0  0  0  0  0
  -11.7692   -2.8170    8.4110 O   0  0  0  0  0  0  0  0  0  0  0  0
   -9.0855   -1.3408   10.5938 C   0  0  0  0  0  0  0  0  0  0  0  0
  -14.0333   -5.2818    8.5823 N   0  0  0  0  0  0  0  0  0  0  0  0
  -13.4412   -6.5289    9.1346 C   0  0  0  0  0  0  0  0  0  0  0  0
  -12.8556   -6.2535   10.5227 C   0  0  0  0  0  0  0  0  0  0  0  0
  -11.5726   -6.9770   10.6685 N   0  0  0  0  0  0  0  0  0  0  0  0
  -11.3700   -7.3364   12.1015 C   0  0  0  0  0  0  0  0  0  0  0  0
  -10.4594   -6.1110   10.1871 C   0  0  0  0  0  0  0  0  0  0  0  0
  -10.0363   -8.0848   12.2575 C   0  0  0  0  0  0  0  0  0  0  0  0
   -9.1229   -6.8580   10.3462 C   0  0  0  0  0  0  0  0  0  0  0  0
   -8.9225   -7.2186   11.7773 N   0  0  0  0  0  0  0  0  0  0  0  0
   -9.0526   -5.2792    7.5227 C   0  0  0  0  0  0  0  0  0  0  0  0
   -6.9729  -10.8511    5.1711 N   0  0  0  0  0  0  0  0  0  0  0  0
   -9.8101   -6.3467    6.9842 C   0  0  0  0  0  0  0  0  0  0  0  0
  -11.2245   -6.2421    6.9058 C   0  0  0  0  0  0  0  0  0  0  0  0
  -11.8818   -5.0673    7.3638 C   0  0  0  0  0  0  0  0  0  0  0  0
  -11.1173   -3.9987    7.9215 C   0  0  0  0  0  0  0  0  0  0  0  0
   -9.7015   -4.1077    7.9945 C   0  0  0  0  0  0  0  0  0  0  0  0
   -5.8030  -10.1695    4.7657 C   0  0  0  0  0  0  0  0  0  0  0  0
   -5.9289   -8.7782    4.9804 C   0  0  0  0  0  0  0  0  0  0  0  0
   -7.8535   -7.4088    5.9728 C   0  0  0  0  0  0  0  0  0  0  0  0
   -9.1552   -7.5024    6.5360 C   0  0  0  0  0  0  0  0  0  0  0  0
   -9.7886   -8.7705    6.6503 C   0  0  0  0  0  0  0  0  0  0  0  0
   -9.1199   -9.9424    6.2042 C   0  0  0  0  0  0  0  0  0  0  0  0
   -7.8048   -9.8466    5.6508 C   0  0  0  0  0  0  0  0  0  0  0  0
   -7.1768   -8.5929    5.5363 C   0  0  0  0  0  0  0  0  0  0  0  0
  1  6  1  0  0  0  0
  2  4  1  0  0  0  0
  3  7  1  0  0  0  0
  4  5  1  0  0  0  0
  6  2  1  0  0  0  0
  7  8  1  0  0  0  0
  8  9  1  0  0  0  0
  9 10  1  0  0  0  0
 10 11  1  0  0  0  0
 10 12  1  0  0  0  0
 11 13  1  0  0  0  0
 13 15  1  0  0  0  0
 14 12  1  0  0  0  0
 15 14  1  0  0  0  0
 16 18  2  0  0  0  0
 16 22  1  0  0  0  0
 17 23  1  0  0  0  0
 17 29  1  0  0  0  0
 18 19  1  0  0  0  0
 18 26  1  0  0  0  0
 19 20  2  0  0  0  0
 20  3  1  0  0  0  0
 20 21  1  0  0  0  0
 21  5  1  0  0  0  0
 21 22  2  0  0  0  0
 23 24  2  0  0  0  0
 24 30  1  0  0  0  0
 25 26  2  0  0  0  0
 25 30  1  0  0  0  0
 26 27  1  0  0  0  0
 27 28  2  0  0  0  0
 28 29  1  0  0  0  0
 29 30  2  0  0  0  0
M  END
>  <CHROM.1>
-54.54137086,174.96640618,-48.38974909,-75.07940371,-179.60382444,123.81158096
-139.93875667,-149.85237031,-32.42185825,99.58685150,-176.43057979,-9.98276602
-6.20928946,8.43030979,-2.25972591,-0.79157908,-3.00489315

>  <Name>
1uts_lig

>  <RI>
0

>  <Rbt.Current_Directory>
/home/itssahil/PROJECTS/Mol_Feturizer/New_Systems/rnas/1uts

>  <Rbt.Executable>
rbdock ($Id: //depot/dev/client3/rdock/2013.1/src/exe/rbdock.cxx#4 $)

>  <Rbt.Library>
libRbt.so (2013.1, Build901 2013/11/27)

>  <Rbt.Parameter_File>
/export/apps/rDock/src/rDock_2013.1_src/data/scripts/dock_solv.prm

>  <Rbt.Receptor>
prm/blind_docking_100.prm

>  <SCORE>
-7.34268

>  <SCORE.INTER>
-13.7918

>  <SCORE.INTER.CONST>
1

>  <SCORE.INTER.POLAR>
-0.72494

>  <SCORE.INTER.ROT>
10

>  <SCORE.INTER.SOLV>
7.1926

>  <SCORE.INTER.VDW>
-19.4423

>  <SCORE.INTER.norm>
-0.459728

>  <SCORE.INTRA>
3.57913

>  <SCORE.INTRA.DIHEDRAL>
-4.88064

>  <SCORE.INTRA.DIHEDRAL.0>
18.0451

>  <SCORE.INTRA.POLAR>
0.196815

>  <SCORE.INTRA.POLAR.0>
-0.196815

>  <SCORE.INTRA.REPUL>
0

>  <SCORE.INTRA.REPUL.0>
0

>  <SCORE.INTRA.SOLV>
-0.20192

>  <SCORE.INTRA.SOLV.lig_0>
-14.7906

>  <SCORE.INTRA.VDW>
5.45124

>  <SCORE.INTRA.VDW.0>
-0.411701

>  <SCORE.INTRA.norm>
0.119304

>  <SCORE.RESTR>
2.87003

>  <SCORE.RESTR.CAVITY>
2.87003

>  <SCORE.RESTR.norm>
0.0956678

>  <SCORE.SYSTEM>
0

>  <SCORE.SYSTEM.CONST>
0

>  <SCORE.SYSTEM.DIHEDRAL>
0

>  <SCORE.SYSTEM.SOLV>
0

>  <SCORE.SYSTEM.norm>
0

>  <SCORE.heavy>
30

>  <SCORE.norm>
-0.244756

>  <RMSD>
17.341

$$$$
1uts_lig
 OpenBabel11021811413D
libRbt.so/2013.1/901 2013/11/27
 30 33  0  0  0  0  0  0  0  0999 V2000
   -5.4762  -12.6160    3.8117 N   0  0  0  0  0  0  0  0  0  0  0  0
   -5.4827  -10.5422    5.1294 C   0  0  0  0  0  0  0  0  0  0  0  0
   -7.7669   -9.2019    8.3752 C   0  0  0  0  0  0  0  0  0  0  0  0
   -6.1913   -9.1978    5.3186 C   0  0  0  0  0  0  0  0  0  0  0  0
   -7.6043   -9.4174    5.4412 O   0  0  0  0  0  0  0  0  0  0  0  0
   -6.0727  -11.2653    3.9173 C   0  0  0  0  0  0  0  0  0  0  0  0
   -8.2800   -9.0084    9.7505 N   0  0  0  0  0  0  0  0  0  0  0  0
   -9.5994   -8.3246    9.7012 C   0  0  0  0  0  0  0  0  0  0  0  0
   -9.9131   -7.7054   11.0664 C   0  0  0  0  0  0  0  0  0  0  0  0
  -10.6396   -6.4303   10.8737 N   0  0  0  0  0  0  0  0  0  0  0  0
  -10.7351   -5.7159   12.1792 C   0  0  0  0  0  0  0  0  0  0  0  0
  -11.9999   -6.7130   10.3348 C   0  0  0  0  0  0  0  0  0  0  0  0
  -11.4925   -4.3925   11.9838 C   0  0  0  0  0  0  0  0  0  0  0  0
  -12.7607   -5.3888   10.1421 C   0  0  0  0  0  0  0  0  0  0  0  0
  -12.8536   -4.6748   11.4459 N   0  0  0  0  0  0  0  0  0  0  0  0
   -9.4176   -6.1219    5.7288 C   0  0  0  0  0  0  0  0  0  0  0  0
  -11.9116   -1.4072    9.3629 N   0  0  0  0  0  0  0  0  0  0  0  0
   -9.5323   -5.9893    7.1333 C   0  0  0  0  0  0  0  0  0  0  0  0
   -8.9956   -6.9913    7.9851 C   0  0  0  0  0  0  0  0  0  0  0  0
   -8.3406   -8.1256    7.4316 C   0  0  0  0  0  0  0  0  0  0  0  0
   -8.2405   -8.2653    6.0148 C   0  0  0  0  0  0  0  0  0  0  0  0
   -8.7769   -7.2576    5.1671 C   0  0  0  0  0  0  0  0  0  0  0  0
  -10.7743   -0.9419   10.0613 C   0  0  0  0  0  0  0  0  0  0  0  0
   -9.6793   -1.8178    9.8843 C   0  0  0  0  0  0  0  0  0  0  0  0
   -9.4739   -3.9820    8.5285 C   0  0  0  0  0  0  0  0  0  0  0  0
  -10.1807   -4.8689    7.6716 C   0  0  0  0  0  0  0  0  0  0  0  0
  -11.5437   -4.6140    7.3562 C   0  0  0  0  0  0  0  0  0  0  0  0
  -12.1971   -3.4729    7.8951 C   0  0  0  0  0  0  0  0  0  0  0  0
  -11.4794   -2.5749    8.7457 C   0  0  0  0  0  0  0  0  0  0  0  0
  -10.1310   -2.8258    9.0594 C   0  0  0  0  0  0  0  0  0  0  0  0
  1  6  1  0  0  0  0
  2  4  1  0  0  0  0
  3  7  1  0  0  0  0
  4  5  1  0  0  0  0
  6  2  1  0  0  0  0
  7  8  1  0  0  0  0
  8  9  1  0  0  0  0
  9 10  1  0  0  0  0
 10 11  1  0  0  0  0
 10 12  1  0  0  0  0
 11 13  1  0  0  0  0
 13 15  1  0  0  0  0
 14 12  1  0  0  0  0
 15 14  1  0  0  0  0
 16 18  2  0  0  0  0
 16 22  1  0  0  0  0
 17 23  1  0  0  0  0
 17 29  1  0  0  0  0
 18 19  1  0  0  0  0
 18 26  1  0  0  0  0
 19 20  2  0  0  0  0
 20  3  1  0  0  0  0
 20 21  1  0  0  0  0
 21  5  1  0  0  0  0
 21 22  2  0  0  0  0
 23 24  2  0  0  0  0
 24 30  1  0  0  0  0
 25 26  2  0  0  0  0
 25 30  1  0  0  0  0
 26 27  1  0  0  0  0
 27 28  2  0  0  0  0
 28 29  1  0  0  0  0
 29 30  2  0  0  0  0
M  END
>  <CHROM.1>
-57.74068121,56.14540613,26.67315436,162.49526390,-174.74176312,-161.01981311
144.60757765,-170.26440992,-119.38247152,13.05874511,-87.37303829,-9.55175821
-6.44626636,8.26276929,-0.19375263,1.03605977,-0.72622814

>  <Name>
1uts_lig

>  <RI>
0

>  <Rbt.Current_Directory>
/home/itssahil/PROJECTS/Mol_Feturizer/New_Systems/rnas/1uts

>  <Rbt.Executable>
rbdock ($Id: //depot/dev/client3/rdock/2013.1/src/exe/rbdock.cxx#4 $)

>  <Rbt.Library>
libRbt.so (2013.1, Build901 2013/11/27)

>  <Rbt.Parameter_File>
/export/apps/rDock/src/rDock_2013.1_src/data/scripts/dock_solv.prm

>  <Rbt.Receptor>
prm/blind_docking_100.prm

>  <SCORE>
-6.95626

>  <SCORE.INTER>
-23.2367

>  <SCORE.INTER.CONST>
1

>  <SCORE.INTER.POLAR>
-1.05876

>  <SCORE.INTER.ROT>
10

>  <SCORE.INTER.SOLV>
8.60637

>  <SCORE.INTER.VDW>
-25.0974

>  <SCORE.INTER.norm>
-0.774557

>  <SCORE.INTRA>
14.8967

>  <SCORE.INTRA.DIHEDRAL>
-0.641698

>  <SCORE.INTRA.DIHEDRAL.0>
18.0451

>  <SCORE.INTRA.POLAR>
0.196815

>  <SCORE.INTRA.POLAR.0>
-0.196815

>  <SCORE.INTRA.REPUL>
0

>  <SCORE.INTRA.REPUL.0>
0

>  <SCORE.INTRA.SOLV>
0.350103

>  <SCORE.INTRA.SOLV.lig_0>
-14.7906

>  <SCORE.INTRA.VDW>
14.3733

>  <SCORE.INTRA.VDW.0>
-0.411701

>  <SCORE.INTRA.norm>
0.496557

>  <SCORE.RESTR>
1.38373

>  <SCORE.RESTR.CAVITY>
1.38373

>  <SCORE.RESTR.norm>
0.0461244

>  <SCORE.SYSTEM>
0

>  <SCORE.SYSTEM.CONST>
0

>  <SCORE.SYSTEM.DIHEDRAL>
0

>  <SCORE.SYSTEM.SOLV>
0

>  <SCORE.SYSTEM.norm>
0

>  <SCORE.heavy>
30

>  <SCORE.norm>
-0.231875

>  <RMSD>
17.342

$$$$
1uts_lig
 OpenBabel11021811413D
libRbt.so/2013.1/901 2013/11/27
 30 33  0  0  0  0  0  0  0  0999 V2000
   -4.6113  -11.1052    4.7376 N   0  0  0  0  0  0  0  0  0  0  0  0
   -7.0603  -11.2774    4.6381 C   0  0  0  0  0  0  0  0  0  0  0  0
   -6.9615   -9.0379    7.6305 C   0  0  0  0  0  0  0  0  0  0  0  0
   -7.3432   -9.9008    4.0298 C   0  0  0  0  0  0  0  0  0  0  0  0
   -6.5639   -8.9086    4.7140 O   0  0  0  0  0  0  0  0  0  0  0  0
   -5.7373  -11.8163    4.0911 C   0  0  0  0  0  0  0  0  0  0  0  0
   -7.7480   -9.2637    8.8645 N   0  0  0  0  0  0  0  0  0  0  0  0
   -8.1368   -7.9564    9.4568 C   0  0  0  0  0  0  0  0  0  0  0  0
   -9.4380   -8.1134   10.2492 C   0  0  0  0  0  0  0  0  0  0  0  0
  -10.0628   -6.7850   10.4384 N   0  0  0  0  0  0  0  0  0  0  0  0
   -9.9663   -6.3956   11.8747 C   0  0  0  0  0  0  0  0  0  0  0  0
  -11.4891   -6.8443   10.0104 C   0  0  0  0  0  0  0  0  0  0  0  0
  -10.6178   -5.0178   12.0758 C   0  0  0  0  0  0  0  0  0  0  0  0
  -12.1436   -5.4661   10.2149 C   0  0  0  0  0  0  0  0  0  0  0  0
  -12.0446   -5.0768   11.6491 N   0  0  0  0  0  0  0  0  0  0  0  0
   -8.9217   -5.9970    5.1556 C   0  0  0  0  0  0  0  0  0  0  0  0
  -12.4167   -2.1490    8.9738 N   0  0  0  0  0  0  0  0  0  0  0  0
   -9.1533   -6.0361    6.5514 C   0  0  0  0  0  0  0  0  0  0  0  0
   -8.5152   -7.0244    7.3475 C   0  0  0  0  0  0  0  0  0  0  0  0
   -7.6422   -7.9728    6.7473 C   0  0  0  0  0  0  0  0  0  0  0  0
   -7.4229   -7.9418    5.3373 C   0  0  0  0  0  0  0  0  0  0  0  0
   -8.0619   -6.9483    4.5459 C   0  0  0  0  0  0  0  0  0  0  0  0
  -11.4002   -1.5038    9.7141 C   0  0  0  0  0  0  0  0  0  0  0  0
  -10.1507   -2.1322    9.5105 C   0  0  0  0  0  0  0  0  0  0  0  0
   -9.5071   -4.1355    8.0488 C   0  0  0  0  0  0  0  0  0  0  0  0
  -10.0165   -5.0985    7.1358 C   0  0  0  0  0  0  0  0  0  0  0  0
  -11.4010   -5.1048    6.8112 C   0  0  0  0  0  0  0  0  0  0  0  0
  -12.2733   -4.1481    7.3971 C   0  0  0  0  0  0  0  0  0  0  0  0
  -11.7554   -3.1718    8.3046 C   0  0  0  0  0  0  0  0  0  0  0  0
  -10.3860   -3.1644    8.6275 C   0  0  0  0  0  0  0  0  0  0  0  0
  1  6  1  0  0  0  0
  2  4  1  0  0  0  0
  3  7  1  0  0  0  0
  4  5  1  0  0  0  0
  6  2  1  0  0  0  0
  7  8  1  0  0  0  0
  8  9  1  0  0  0  0
  9 10  1  0  0  0  0
 10 11  1  0  0  0  0
 10 12  1  0  0  0  0
 11 13  1  0  0  0  0
 13 15  1  0  0  0  0
 14 12  1  0  0  0  0
 15 14  1  0  0  0  0
 16 18  2  0  0  0  0
 16 22  1  0  0  0  0
 17 23  1  0  0  0  0
 17 29  1  0  0  0  0
 18 19  1  0  0  0  0
 18 26  1  0  0  0  0
 19 20  2  0  0  0  0
 20  3  1  0  0  0  0
 20 21  1  0  0  0  0
 21  5  1  0  0  0  0
 21 22  2  0  0  0  0
 23 24  2  0  0  0  0
 24 30  1  0  0  0  0
 25 26  2  0  0  0  0
 25 30  1  0  0  0  0
 26 27  1  0  0  0  0
 27 28  2  0  0  0  0
 28 29  1  0  0  0  0
 29 30  2  0  0  0  0
M  END
>  <CHROM.1>
84.96948060,-79.20232110,-46.11391304,-118.94600951,75.07107403,152.25574344
-160.74958952,-110.15262701,-114.25145993,23.95009836,104.06516131,-9.25105680
-6.62155534,7.85790279,-0.16982808,-0.99874978,2.03043519

>  <Name>
1uts_lig

>  <RI>
0

>  <Rbt.Current_Directory>
/home/itssahil/PROJECTS/Mol_Feturizer/New_Systems/rnas/1uts

>  <Rbt.Executable>
rbdock ($Id: //depot/dev/client3/rdock/2013.1/src/exe/rbdock.cxx#4 $)

>  <Rbt.Library>
libRbt.so (2013.1, Build901 2013/11/27)

>  <Rbt.Parameter_File>
/export/apps/rDock/src/rDock_2013.1_src/data/scripts/dock_solv.prm

>  <Rbt.Receptor>
prm/blind_docking_100.prm

>  <SCORE>
-17.8533

>  <SCORE.INTER>
-32.2806

>  <SCORE.INTER.CONST>
1

>  <SCORE.INTER.POLAR>
-2.32894

>  <SCORE.INTER.ROT>
10

>  <SCORE.INTER.SOLV>
8.50832

>  <SCORE.INTER.VDW>
-26.86

>  <SCORE.INTER.norm>
-1.07602

>  <SCORE.INTRA>
13.7885

>  <SCORE.INTRA.DIHEDRAL>
8.48025

>  <SCORE.INTRA.DIHEDRAL.0>
18.0451

>  <SCORE.INTRA.POLAR>
-0.568725

>  <SCORE.INTRA.POLAR.0>
-0.196815

>  <SCORE.INTRA.REPUL>
0

>  <SCORE.INTRA.REPUL.0>
0

>  <SCORE.INTRA.SOLV>
0.72745

>  <SCORE.INTRA.SOLV.lig_0>
-14.7906

>  <SCORE.INTRA.VDW>
11.1183

>  <SCORE.INTRA.VDW.0>
-0.411701

>  <SCORE.INTRA.norm>
0.459616

>  <SCORE.RESTR>
0.638762

>  <SCORE.RESTR.CAVITY>
0.638762

>  <SCORE.RESTR.norm>
0.0212921

>  <SCORE.SYSTEM>
0

>  <SCORE.SYSTEM.CONST>
0

>  <SCORE.SYSTEM.DIHEDRAL>
0

>  <SCORE.SYSTEM.SOLV>
0

>  <SCORE.SYSTEM.norm>
0

>  <SCORE.heavy>
30

>  <SCORE.norm>
-0.595112

>  <RMSD>
17.345

$$$$
1uts_lig
 OpenBabel11021811413D
libRbt.so/2013.1/901 2013/11/27
 30 33  0  0  0  0  0  0  0  0999 V2000
   -6.9669  -10.8729    2.9846 N   0  0  0  0  0  0  0  0  0  0  0  0
   -5.3733  -10.2691    4.7546 C   0  0  0  0  0  0  0  0  0  0  0  0
   -8.9130   -9.5194    6.6878 C   0  0  0  0  0  0  0  0  0  0  0  0
   -6.2141   -9.2112    5.4751 C   0  0  0  0  0  0  0  0  0  0  0  0
   -7.1166   -8.6024    4.5399 O   0  0  0  0  0  0  0  0  0  0  0  0
   -6.2896  -11.3642    4.2058 C   0  0  0  0  0  0  0  0  0  0  0  0
   -9.5414   -9.6253    8.0242 N   0  0  0  0  0  0  0  0  0  0  0  0
   -8.5607   -9.2344    9.0713 C   0  0  0  0  0  0  0  0  0  0  0  0
   -9.2572   -9.1662   10.4335 C   0  0  0  0  0  0  0  0  0  0  0  0
   -9.9158   -7.8492   10.5846 N   0  0  0  0  0  0  0  0  0  0  0  0
   -8.8748   -6.7845   10.6654 C   0  0  0  0  0  0  0  0  0  0  0  0
  -10.7521   -7.8536   11.8181 C   0  0  0  0  0  0  0  0  0  0  0  0
   -9.5551   -5.4154   10.8262 C   0  0  0  0  0  0  0  0  0  0  0  0
  -11.4309   -6.4818   11.9822 C   0  0  0  0  0  0  0  0  0  0  0  0
  -10.3907   -5.4187   12.0604 N   0  0  0  0  0  0  0  0  0  0  0  0
   -8.7203   -5.3149    5.4631 C   0  0  0  0  0  0  0  0  0  0  0  0
  -12.7015   -1.7798    9.0495 N   0  0  0  0  0  0  0  0  0  0  0  0
   -9.6100   -5.7176    6.4875 C   0  0  0  0  0  0  0  0  0  0  0  0
   -9.6678   -7.0817    6.8792 C   0  0  0  0  0  0  0  0  0  0  0  0
   -8.8324   -8.0436    6.2477 C   0  0  0  0  0  0  0  0  0  0  0  0
   -7.9477   -7.6381    5.2037 C   0  0  0  0  0  0  0  0  0  0  0  0
   -7.8919   -6.2708    4.8180 C   0  0  0  0  0  0  0  0  0  0  0  0
  -11.6645   -1.2267    9.8346 C   0  0  0  0  0  0  0  0  0  0  0  0
  -10.4471   -1.9113    9.6185 C   0  0  0  0  0  0  0  0  0  0  0  0
   -9.8870   -3.8744    8.0704 C   0  0  0  0  0  0  0  0  0  0  0  0
  -10.4316   -4.7637    7.1045 C   0  0  0  0  0  0  0  0  0  0  0  0
  -11.8089   -4.6795    6.7603 C   0  0  0  0  0  0  0  0  0  0  0  0
  -12.6385   -3.7060    7.3797 C   0  0  0  0  0  0  0  0  0  0  0  0
  -12.0845   -2.8037    8.3409 C   0  0  0  0  0  0  0  0  0  0  0  0
  -10.7224   -2.8859    8.6830 C   0  0  0  0  0  0  0  0  0  0  0  0
  1  6  1  0  0  0  0
  2  4  1  0  0  0  0
  3  7  1  0  0  0  0
  4  5  1  0  0  0  0
  6  2  1  0  0  0  0
  7  8  1  0  0  0  0
  8  9  1  0  0  0  0
  9 10  1  0  0  0  0
 10 11  1  0  0  0  0
 10 12  1  0  0  0  0
 11 13  1  0  0  0  0
 13 15  1  0  0  0  0
 14 12  1  0  0  0  0
 15 14  1  0  0  0  0
 16 18  2  0  0  0  0
 16 22  1  0  0  0  0
 17 23  1  0  0  0  0
 17 29  1  0  0  0  0
 18 19  1  0  0  0  0
 18 26  1  0  0  0  0
 19 20  2  0  0  0  0
 20  3  1  0  0  0  0
 20 21  1  0  0  0  0
 21  5  1  0  0  0  0
 21 22  2  0  0  0  0
 23 24  2  0  0  0  0
 24 30  1  0  0  0  0
 25 26  2  0  0  0  0
 25 30  1  0  0  0  0
 26 27  1  0  0  0  0
 27 28  2  0  0  0  0
 28 29  1  0  0  0  0
 29 30  2  0  0  0  0
M  END
>  <CHROM.1>
-67.16491129,-61.97662970,-76.74962135,178.04059160,76.76277152,172.64940860
-83.51381855,-67.03088714,-76.65722164,-19.04608968,-61.70224426,-9.43428613
-6.63227457,7.81300337,0.08022292,1.07149474,-0.99798525

>  <Name>
1uts_lig

>  <RI>
0

>  <Rbt.Current_Directory>
/home/itssahil/PROJECTS/Mol_Feturizer/New_Systems/rnas/1uts

>  <Rbt.Executable>
rbdock ($Id: //depot/dev/client3/rdock/2013.1/src/exe/rbdock.cxx#4 $)

>  <Rbt.Library>
libRbt.so (2013.1, Build901 2013/11/27)

>  <Rbt.Parameter_File>
/export/apps/rDock/src/rDock_2013.1_src/data/scripts/dock_solv.prm

>  <Rbt.Receptor>
prm/blind_docking_100.prm

>  <SCORE>
-24.2958

>  <SCORE.INTER>
-22.0376

>  <SCORE.INTER.CONST>
1

>  <SCORE.INTER.POLAR>
-1.11393

>  <SCORE.INTER.ROT>
10

>  <SCORE.INTER.SOLV>
7.67878

>  <SCORE.INTER.VDW>
-23.8049

>  <SCORE.INTER.norm>
-0.734587

>  <SCORE.INTRA>
-3.48712

>  <SCORE.INTRA.DIHEDRAL>
-5.12328

>  <SCORE.INTRA.DIHEDRAL.0>
18.0451

>  <SCORE.INTRA.POLAR>
-0.255862

>  <SCORE.INTRA.POLAR.0>
-0.196815

>  <SCORE.INTRA.REPUL>
0

>  <SCORE.INTRA.REPUL.0>
0

>  <SCORE.INTRA.SOLV>
0.291778

>  <SCORE.INTRA.SOLV.lig_0>
-14.7906

>  <SCORE.INTRA.VDW>
-0.20144

>  <SCORE.INTRA.VDW.0>
-0.411701

>  <SCORE.INTRA.norm>
-0.116237

>  <SCORE.RESTR>
1.22888

>  <SCORE.RESTR.CAVITY>
1.22888

>  <SCORE.RESTR.norm>
0.0409625

>  <SCORE.SYSTEM>
0

>  <SCORE.SYSTEM.CONST>
0

>  <SCORE.SYSTEM.DIHEDRAL>
0

>  <SCORE.SYSTEM.SOLV>
0

>  <SCORE.SYSTEM.norm>
0

>  <SCORE.heavy>
30

>  <SCORE.norm>
-0.809862

>  <RMSD>
17.353

$$$$
1uts_lig
 OpenBabel11021811413D
libRbt.so/2013.1/901 2013/11/27
 30 33  0  0  0  0  0  0  0  0999 V2000
   -4.3620  -12.0763    4.5369 N   0  0  0  0  0  0  0  0  0  0  0  0
   -6.4588  -10.9748    3.8829 C   0  0  0  0  0  0  0  0  0  0  0  0
   -6.9665   -8.8535    7.6886 C   0  0  0  0  0  0  0  0  0  0  0  0
   -7.0708  -10.0584    4.9464 C   0  0  0  0  0  0  0  0  0  0  0  0
   -6.5689   -8.7251    4.7720 O   0  0  0  0  0  0  0  0  0  0  0  0
   -5.8372  -12.1985    4.5585 C   0  0  0  0  0  0  0  0  0  0  0  0
   -7.8149   -9.1957    8.8527 N   0  0  0  0  0  0  0  0  0  0  0  0
   -8.2748   -7.9495    9.5209 C   0  0  0  0  0  0  0  0  0  0  0  0
   -9.7283   -8.1117    9.9753 C   0  0  0  0  0  0  0  0  0  0  0  0
  -10.3272   -6.7762   10.1963 N   0  0  0  0  0  0  0  0  0  0  0  0
   -9.9808   -6.3021   11.5671 C   0  0  0  0  0  0  0  0  0  0  0  0
  -11.8060   -6.8650   10.0349 C   0  0  0  0  0  0  0  0  0  0  0  0
  -10.6045   -4.9167   11.8018 C   0  0  0  0  0  0  0  0  0  0  0  0
  -12.4320   -5.4791   10.2733 C   0  0  0  0  0  0  0  0  0  0  0  0
  -12.0836   -5.0051   11.6417 N   0  0  0  0  0  0  0  0  0  0  0  0
   -8.9904   -5.8645    5.2017 C   0  0  0  0  0  0  0  0  0  0  0  0
  -12.5729   -2.0791    8.9998 N   0  0  0  0  0  0  0  0  0  0  0  0
   -9.2224   -5.9040    6.5973 C   0  0  0  0  0  0  0  0  0  0  0  0
   -8.5637   -6.8754    7.3973 C   0  0  0  0  0  0  0  0  0  0  0  0
   -7.6695   -7.8064    6.8011 C   0  0  0  0  0  0  0  0  0  0  0  0
   -7.4495   -7.7753    5.3913 C   0  0  0  0  0  0  0  0  0  0  0  0
   -8.1093   -6.7987    4.5960 C   0  0  0  0  0  0  0  0  0  0  0  0
  -11.5679   -1.3933    9.7190 C   0  0  0  0  0  0  0  0  0  0  0  0
  -10.3026   -1.9876    9.5105 C   0  0  0  0  0  0  0  0  0  0  0  0
   -9.6161   -3.9926    8.0708 C   0  0  0  0  0  0  0  0  0  0  0  0
  -10.1066   -4.9837    7.1778 C   0  0  0  0  0  0  0  0  0  0  0  0
  -11.4938   -5.0355    6.8690 C   0  0  0  0  0  0  0  0  0  0  0  0
  -12.3875   -4.0963    7.4509 C   0  0  0  0  0  0  0  0  0  0  0  0
  -11.8889   -3.0917    8.3381 C   0  0  0  0  0  0  0  0  0  0  0  0
  -10.5169   -3.0393    8.6452 C   0  0  0  0  0  0  0  0  0  0  0  0
  1  6  1  0  0  0  0
  2  4  1  0  0  0  0
  3  7  1  0  0  0  0
  4  5  1  0  0  0  0
  6  2  1  0  0  0  0
  7  8  1  0  0  0  0
  8  9  1  0  0  0  0
  9 10  1  0  0  0  0
 10 11  1  0  0  0  0
 10 12  1  0  0  0  0
 11 13  1  0  0  0  0
 13 15  1  0  0  0  0
 14 12  1  0  0  0  0
 15 14  1  0  0  0  0
 16 18  2  0  0  0  0
 16 22  1  0  0  0  0
 17 23  1  0  0  0  0
 17 29  1  0  0  0  0
 18 19  1  0  0  0  0
 18 26  1  0  0  0  0
 19 20  2  0  0  0  0
 20  3  1  0  0  0  0
 20 21  1  0  0  0  0
 21  5  1  0  0  0  0
 21 22  2  0  0  0  0
 23 24  2  0  0  0  0
 24 30  1  0  0  0  0
 25 26  2  0  0  0  0
 25 30  1  0  0  0  0
 26 27  1  0  0  0  0
 27 28  2  0  0  0  0
 28 29  1  0  0  0  0
 29 30  2  0  0  0  0
M  END
>  <CHROM.1>
-71.44548831,127.70094231,-49.88798523,158.90277826,-106.19025338,140.90474058
-160.36423111,-84.11513841,-113.20406048,29.77929940,62.75585259,-9.30807374
-6.59049683,7.85736621,-0.05272540,-0.98849021,2.12452302

>  <Name>
1uts_lig

>  <RI>
0

>  <Rbt.Current_Directory>
/home/itssahil/PROJECTS/Mol_Feturizer/New_Systems/rnas/1uts

>  <Rbt.Executable>
rbdock ($Id: //depot/dev/client3/rdock/2013.1/src/exe/rbdock.cxx#4 $)

>  <Rbt.Library>
libRbt.so (2013.1, Build901 2013/11/27)

>  <Rbt.Parameter_File>
/export/apps/rDock/src/rDock_2013.1_src/data/scripts/dock_solv.prm

>  <Rbt.Receptor>
prm/blind_docking_100.prm

>  <SCORE>
-12.9791

>  <SCORE.INTER>
-29.6445

>  <SCORE.INTER.CONST>
1

>  <SCORE.INTER.POLAR>
-1.61633

>  <SCORE.INTER.ROT>
10

>  <SCORE.INTER.SOLV>
9.4404

>  <SCORE.INTER.VDW>
-27.7887

>  <SCORE.INTER.norm>
-0.988151

>  <SCORE.INTRA>
16.4944

>  <SCORE.INTRA.DIHEDRAL>
8.42447

>  <SCORE.INTRA.DIHEDRAL.0>
18.0451

>  <SCORE.INTRA.POLAR>
0.196815

>  <SCORE.INTRA.POLAR.0>
-0.196815

>  <SCORE.INTRA.REPUL>
0

>  <SCORE.INTRA.REPUL.0>
0

>  <SCORE.INTRA.SOLV>
0.46135

>  <SCORE.INTRA.SOLV.lig_0>
-14.7906

>  <SCORE.INTRA.VDW>
11.3823

>  <SCORE.INTRA.VDW.0>
-0.411701

>  <SCORE.INTRA.norm>
0.549813

>  <SCORE.RESTR>
0.171032

>  <SCORE.RESTR.CAVITY>
0.171032

>  <SCORE.RESTR.norm>
0.00570106

>  <SCORE.SYSTEM>
0

>  <SCORE.SYSTEM.CONST>
0

>  <SCORE.SYSTEM.DIHEDRAL>
0

>  <SCORE.SYSTEM.SOLV>
0

>  <SCORE.SYSTEM.norm>
0

>  <SCORE.heavy>
30

>  <SCORE.norm>
-0.432637

>  <RMSD>
17.369

$$$$
1uts_lig
 OpenBabel11021811413D
libRbt.so/2013.1/901 2013/11/27
 30 33  0  0  0  0  0  0  0  0999 V2000
   -5.0628  -12.6161    4.0199 N   0  0  0  0  0  0  0  0  0  0  0  0
   -7.0596  -11.5060    4.9240 C   0  0  0  0  0  0  0  0  0  0  0  0
   -7.0657   -8.8920    7.7958 C   0  0  0  0  0  0  0  0  0  0  0  0
   -7.9160  -10.2532    4.7183 C   0  0  0  0  0  0  0  0  0  0  0  0
   -7.0926   -9.0857    4.8559 O   0  0  0  0  0  0  0  0  0  0  0  0
   -5.6879  -11.2995    4.2791 C   0  0  0  0  0  0  0  0  0  0  0  0
   -7.5531   -8.8235    9.1921 N   0  0  0  0  0  0  0  0  0  0  0  0
   -8.9255   -9.3902    9.2720 C   0  0  0  0  0  0  0  0  0  0  0  0
   -9.5985   -8.9363   10.5706 C   0  0  0  0  0  0  0  0  0  0  0  0
   -9.8744   -7.4837   10.5008 N   0  0  0  0  0  0  0  0  0  0  0  0
   -8.7805   -6.7411   11.1905 C   0  0  0  0  0  0  0  0  0  0  0  0
  -11.1857   -7.1981   11.1487 C   0  0  0  0  0  0  0  0  0  0  0  0
   -9.0656   -5.2320   11.1234 C   0  0  0  0  0  0  0  0  0  0  0  0
  -11.4706   -5.6867   11.0854 C   0  0  0  0  0  0  0  0  0  0  0  0
  -10.3765   -4.9456   11.7723 N   0  0  0  0  0  0  0  0  0  0  0  0
   -9.2942   -6.0554    5.3053 C   0  0  0  0  0  0  0  0  0  0  0  0
  -12.5277   -1.9398    9.0305 N   0  0  0  0  0  0  0  0  0  0  0  0
   -9.3216   -5.9384    6.7156 C   0  0  0  0  0  0  0  0  0  0  0  0
   -8.5976   -6.8612    7.5167 C   0  0  0  0  0  0  0  0  0  0  0  0
   -7.8428   -7.9004    6.9065 C   0  0  0  0  0  0  0  0  0  0  0  0
   -7.8297   -8.0264    5.4849 C   0  0  0  0  0  0  0  0  0  0  0  0
   -8.5538   -7.0979    4.6879 C   0  0  0  0  0  0  0  0  0  0  0  0
  -13.7537   -2.3433    8.4544 C   0  0  0  0  0  0  0  0  0  0  0  0
  -13.5723   -3.4658    7.6150 C   0  0  0  0  0  0  0  0  0  0  0  0
  -11.4635   -4.8084    7.0541 C   0  0  0  0  0  0  0  0  0  0  0  0
  -10.0692   -4.9122    7.3101 C   0  0  0  0  0  0  0  0  0  0  0  0
   -9.4359   -3.9779    8.1751 C   0  0  0  0  0  0  0  0  0  0  0  0
  -10.1966   -2.9437    8.7844 C   0  0  0  0  0  0  0  0  0  0  0  0
  -11.6018   -2.8503    8.5359 C   0  0  0  0  0  0  0  0  0  0  0  0
  -12.2300   -3.7733    7.6798 C   0  0  0  0  0  0  0  0  0  0  0  0
  1  6  1  0  0  0  0
  2  4  1  0  0  0  0
  3  7  1  0  0  0  0
  4  5  1  0  0  0  0
  6  2  1  0  0  0  0
  7  8  1  0  0  0  0
  8  9  1  0  0  0  0
  9 10  1  0  0  0  0
 10 11  1  0  0  0  0
 10 12  1  0  0  0  0
 11 13  1  0  0  0  0
 13 15  1  0  0  0  0
 14 12  1  0  0  0  0
 15 14  1  0  0  0  0
 16 18  2  0  0  0  0
 16 22  1  0  0  0  0
 17 23  1  0  0  0  0
 17 29  1  0  0  0  0
 18 19  1  0  0  0  0
 18 26  1  0  0  0  0
 19 20  2  0  0  0  0
 20  3  1  0  0  0  0
 20 21  1  0  0  0  0
 21  5  1  0  0  0  0
 21 22  2  0  0  0  0
 23 24  2  0  0  0  0
 24 30  1  0  0  0  0
 25 26  2  0  0  0  0
 25 30  1  0  0  0  0
 26 27  1  0  0  0  0
 27 28  2  0  0  0  0
 28 29  1  0  0  0  0
 29 30  2  0  0  0  0
M  END
>  <CHROM.1>
-48.69543764,-38.60238022,69.69358737,-144.10804274,-158.86625332,-162.31488843
69.06705702,-96.94146924,57.81985576,16.40520187,89.01446148,-9.35757695
-6.81577447,7.88722723,0.31600427,0.97303418,-1.39863299

>  <Name>
1uts_lig

>  <RI>
0

>  <Rbt.Current_Directory>
/home/itssahil/PROJECTS/Mol_Feturizer/New_Systems/rnas/1uts

>  <Rbt.Executable>
rbdock ($Id: //depot/dev/client3/rdock/2013.1/src/exe/rbdock.cxx#4 $)

>  <Rbt.Library>
libRbt.so (2013.1, Build901 2013/11/27)

>  <Rbt.Parameter_File>
/export/apps/rDock/src/rDock_2013.1_src/data/scripts/dock_solv.prm

>  <Rbt.Receptor>
prm/blind_docking_100.prm

>  <SCORE>
-22.0259

>  <SCORE.INTER>
-26.892

>  <SCORE.INTER.CONST>
1

>  <SCORE.INTER.POLAR>
-1.44293

>  <SCORE.INTER.ROT>
10

>  <SCORE.INTER.SOLV>
8.01452

>  <SCORE.INTER.VDW>
-26.0564

>  <SCORE.INTER.norm>
-0.896401

>  <SCORE.INTRA>
1.67816

>  <SCORE.INTRA.DIHEDRAL>
2.7089

>  <SCORE.INTRA.DIHEDRAL.0>
18.0451

>  <SCORE.INTRA.POLAR>
0.196815

>  <SCORE.INTRA.POLAR.0>
-0.196815

>  <SCORE.INTRA.REPUL>
0

>  <SCORE.INTRA.REPUL.0>
0

>  <SCORE.INTRA.SOLV>
0.158266

>  <SCORE.INTRA.SOLV.lig_0>
-14.7906

>  <SCORE.INTRA.VDW>
-0.424595

>  <SCORE.INTRA.VDW.0>
-0.411701

>  <SCORE.INTRA.norm>
0.0559387

>  <SCORE.RESTR>
3.18797

>  <SCORE.RESTR.CAVITY>
3.18797

>  <SCORE.RESTR.norm>
0.106266

>  <SCORE.SYSTEM>
0

>  <SCORE.SYSTEM.CONST>
0

>  <SCORE.SYSTEM.DIHEDRAL>
0

>  <SCORE.SYSTEM.SOLV>
0

>  <SCORE.SYSTEM.norm>
0

>  <SCORE.heavy>
30

>  <SCORE.norm>
-0.734197

>  <RMSD>
17.375

$$$$
1uts_lig
 OpenBabel11021811413D
libRbt.so/2013.1/901 2013/11/27
 30 33  0  0  0  0  0  0  0  0999 V2000
   -9.9928   -0.8721   11.0477 N   0  0  0  0  0  0  0  0  0  0  0  0
  -10.2471   -3.0213    9.8844 C   0  0  0  0  0  0  0  0  0  0  0  0
   -9.4469   -6.4198    9.1733 C   0  0  0  0  0  0  0  0  0  0  0  0
   -9.3402   -3.6508    8.8230 C   0  0  0  0  0  0  0  0  0  0  0  0
  -10.1207   -3.9804    7.6646 O   0  0  0  0  0  0  0  0  0  0  0  0
  -10.2363   -1.4995    9.7292 C   0  0  0  0  0  0  0  0  0  0  0  0
  -10.8889   -6.6330    9.4328 N   0  0  0  0  0  0  0  0  0  0  0  0
  -11.0669   -7.3093   10.7450 C   0  0  0  0  0  0  0  0  0  0  0  0
  -10.8159   -6.3121   11.8799 C   0  0  0  0  0  0  0  0  0  0  0  0
  -10.5422   -7.0507   13.1331 N   0  0  0  0  0  0  0  0  0  0  0  0
   -9.1259   -7.5173   13.1303 C   0  0  0  0  0  0  0  0  0  0  0  0
  -11.4718   -8.2110   13.2359 C   0  0  0  0  0  0  0  0  0  0  0  0
   -8.8389   -8.2884   14.4289 C   0  0  0  0  0  0  0  0  0  0  0  0
  -11.1830   -8.9861   14.5341 C   0  0  0  0  0  0  0  0  0  0  0  0
   -9.7676   -9.4497   14.5317 N   0  0  0  0  0  0  0  0  0  0  0  0
   -8.6885   -6.0710    4.8700 C   0  0  0  0  0  0  0  0  0  0  0  0
   -5.8407  -11.5784    2.9708 N   0  0  0  0  0  0  0  0  0  0  0  0
   -8.3335   -7.2538    5.5616 C   0  0  0  0  0  0  0  0  0  0  0  0
   -8.5816   -7.3601    6.9561 C   0  0  0  0  0  0  0  0  0  0  0  0
   -9.1883   -6.2833    7.6592 C   0  0  0  0  0  0  0  0  0  0  0  0
   -9.5307   -5.0853    6.9630 C   0  0  0  0  0  0  0  0  0  0  0  0
   -9.2828   -4.9858    5.5665 C   0  0  0  0  0  0  0  0  0  0  0  0
   -5.0454  -12.0002    4.0605 C   0  0  0  0  0  0  0  0  0  0  0  0
   -5.2404  -11.1628    5.1823 C   0  0  0  0  0  0  0  0  0  0  0  0
   -6.7672   -9.1308    5.5044 C   0  0  0  0  0  0  0  0  0  0  0  0
   -7.7342   -8.3107    4.8619 C   0  0  0  0  0  0  0  0  0  0  0  0
   -8.0976   -8.5684    3.5114 C   0  0  0  0  0  0  0  0  0  0  0  0
   -7.4962   -9.6457    2.8063 C   0  0  0  0  0  0  0  0  0  0  0  0
   -6.5339  -10.4776    3.4597 C   0  0  0  0  0  0  0  0  0  0  0  0
   -6.1727  -10.2238    4.7956 C   0  0  0  0  0  0  0  0  0  0  0  0
  1  6  1  0  0  0  0
  2  4  1  0  0  0  0
  3  7  1  0  0  0  0
  4  5  1  0  0  0  0
  6  2  1  0  0  0  0
  7  8  1  0  0  0  0
  8  9  1  0  0  0  0
  9 10  1  0  0  0  0
 10 11  1  0  0  0  0
 10 12  1  0  0  0  0
 11 13  1  0  0  0  0
 13 15  1  0  0  0  0
 14 12  1  0  0  0  0
 15 14  1  0  0  0  0
 16 18  2  0  0  0  0
 16 22  1  0  0  0  0
 17 23  1  0  0  0  0
 17 29  1  0  0  0  0
 18 19  1  0  0  0  0
 18 26  1  0  0  0  0
 19 20  2  0  0  0  0
 20  3  1  0  0  0  0
 20 21  1  0  0  0  0
 21  5  1  0  0  0  0
 21 22  2  0  0  0  0
 23 24  2  0  0  0  0
 24 30  1  0  0  0  0
 25 26  2  0  0  0  0
 25 30  1  0  0  0  0
 26 27  1  0  0  0  0
 27 28  2  0  0  0  0
 28 29  1  0  0  0  0
 29 30  2  0  0  0  0
M  END
>  <CHROM.1>
-59.47513974,-92.54480965,156.51260377,-152.28878341,-130.98542777,74.46407385
-161.06761584,79.68926110,146.33582481,-105.81205927,51.13959726,-8.93693808
-7.15324680,8.40246688,2.82034230,-1.16821993,2.35656602

>  <Name>
1uts_lig

>  <RI>
0

>  <Rbt.Current_Directory>
/home/itssahil/PROJECTS/Mol_Feturizer/New_Systems/rnas/1uts

>  <Rbt.Executable>
rbdock ($Id: //depot/dev/client3/rdock/2013.1/src/exe/rbdock.cxx#4 $)

>  <Rbt.Library>
libRbt.so (2013.1, Build901 2013/11/27)

>  <Rbt.Parameter_File>
/export/apps/rDock/src/rDock_2013.1_src/data/scripts/dock_solv.prm

>  <Rbt.Receptor>
prm/blind_docking_60.prm

>  <SCORE>
-0.172236

>  <SCORE.INTER>
-15.3521

>  <SCORE.INTER.CONST>
1

>  <SCORE.INTER.POLAR>
-0.767138

>  <SCORE.INTER.ROT>
10

>  <SCORE.INTER.SOLV>
8.88106

>  <SCORE.INTER.VDW>
-20.9046

>  <SCORE.INTER.norm>
-0.511738

>  <SCORE.INTRA>
9.90448

>  <SCORE.INTRA.DIHEDRAL>
2.21954

>  <SCORE.INTRA.DIHEDRAL.0>
18.0451

>  <SCORE.INTRA.POLAR>
0.196815

>  <SCORE.INTRA.POLAR.0>
-0.196815

>  <SCORE.INTRA.REPUL>
0

>  <SCORE.INTRA.REPUL.0>
0

>  <SCORE.INTRA.SOLV>
-0.299281

>  <SCORE.INTRA.SOLV.lig_0>
-14.7906

>  <SCORE.INTRA.VDW>
8.27518

>  <SCORE.INTRA.VDW.0>
-0.411701

>  <SCORE.INTRA.norm>
0.330149

>  <SCORE.RESTR>
5.27542

>  <SCORE.RESTR.CAVITY>
5.27542

>  <SCORE.RESTR.norm>
0.175847

>  <SCORE.SYSTEM>
0

>  <SCORE.SYSTEM.CONST>
0

>  <SCORE.SYSTEM.DIHEDRAL>
0

>  <SCORE.SYSTEM.SOLV>
0

>  <SCORE.SYSTEM.norm>
0

>  <SCORE.heavy>
30

>  <SCORE.norm>
-0.00574119

>  <RMSD>
17.382

$$$$
1uts_lig
 OpenBabel11021811413D
libRbt.so/2013.1/901 2013/11/27
 30 33  0  0  0  0  0  0  0  0999 V2000
  -10.3629   -0.8973   10.1813 N   0  0  0  0  0  0  0  0  0  0  0  0
  -10.4230   -2.8946    8.7515 C   0  0  0  0  0  0  0  0  0  0  0  0
  -10.2643   -7.2368    8.9644 C   0  0  0  0  0  0  0  0  0  0  0  0
   -9.5752   -4.0343    8.1790 C   0  0  0  0  0  0  0  0  0  0  0  0
  -10.3758   -4.8197    7.2833 O   0  0  0  0  0  0  0  0  0  0  0  0
   -9.5760   -2.0614    9.7151 C   0  0  0  0  0  0  0  0  0  0  0  0
   -9.4863   -6.5225   10.0020 N   0  0  0  0  0  0  0  0  0  0  0  0
   -8.8829   -7.5051   10.9407 C   0  0  0  0  0  0  0  0  0  0  0  0
   -9.8094   -7.7092   12.1430 C   0  0  0  0  0  0  0  0  0  0  0  0
   -9.0281   -7.5842   13.3939 N   0  0  0  0  0  0  0  0  0  0  0  0
   -9.6555   -8.4265   14.4525 C   0  0  0  0  0  0  0  0  0  0  0  0
   -8.9970   -6.1555   13.8164 C   0  0  0  0  0  0  0  0  0  0  0  0
   -8.8487   -8.2962   15.7546 C   0  0  0  0  0  0  0  0  0  0  0  0
   -8.1925   -6.0243   15.1222 C   0  0  0  0  0  0  0  0  0  0  0  0
   -8.8183   -6.8676   16.1784 N   0  0  0  0  0  0  0  0  0  0  0  0
   -8.2202   -7.0081    5.0934 C   0  0  0  0  0  0  0  0  0  0  0  0
   -5.3107  -12.6310    3.9043 N   0  0  0  0  0  0  0  0  0  0  0  0
   -8.1270   -8.1817    5.8791 C   0  0  0  0  0  0  0  0  0  0  0  0
   -8.7914   -8.2490    7.1327 C   0  0  0  0  0  0  0  0  0  0  0  0
   -9.5525   -7.1424    7.5996 C   0  0  0  0  0  0  0  0  0  0  0  0
   -9.6318   -5.9540    6.8132 C   0  0  0  0  0  0  0  0  0  0  0  0
   -8.9672   -5.8935    5.5578 C   0  0  0  0  0  0  0  0  0  0  0  0
   -6.4366  -13.3942    3.5199 C   0  0  0  0  0  0  0  0  0  0  0  0
   -7.6368  -12.7137    3.8267 C   0  0  0  0  0  0  0  0  0  0  0  0
   -8.0290  -10.4148    4.8874 C   0  0  0  0  0  0  0  0  0  0  0  0
   -7.3735   -9.2682    5.4129 C   0  0  0  0  0  0  0  0  0  0  0  0
   -5.9529   -9.2224    5.4582 C   0  0  0  0  0  0  0  0  0  0  0  0
   -5.1901  -10.3206    4.9767 C   0  0  0  0  0  0  0  0  0  0  0  0
   -5.8523  -11.4669    4.4359 C   0  0  0  0  0  0  0  0  0  0  0  0
   -7.2577  -11.5142    4.3908 C   0  0  0  0  0  0  0  0  0  0  0  0
  1  6  1  0  0  0  0
  2  4  1  0  0  0  0
  3  7  1  0  0  0  0
  4  5  1  0  0  0  0
  6  2  1  0  0  0  0
  7  8  1  0  0  0  0
  8  9  1  0  0  0  0
  9 10  1  0  0  0  0
 10 11  1  0  0  0  0
 10 12  1  0  0  0  0
 11 13  1  0  0  0  0
 13 15  1  0  0  0  0
 14 12  1  0  0  0  0
 15 14  1  0  0  0  0
 16 18  2  0  0  0  0
 16 22  1  0  0  0  0
 17 23  1  0  0  0  0
 17 29  1  0  0  0  0
 18 19  1  0  0  0  0
 18 26  1  0  0  0  0
 19 20  2  0  0  0  0
 20  3  1  0  0  0  0
 20 21  1  0  0  0  0
 21  5  1  0  0  0  0
 21 22  2  0  0  0  0
 23 24  2  0  0  0  0
 24 30  1  0  0  0  0
 25 26  2  0  0  0  0
 25 30  1  0  0  0  0
 26 27  1  0  0  0  0
 27 28  2  0  0  0  0
 28 29  1  0  0  0  0
 29 30  2  0  0  0  0
M  END
>  <CHROM.1>
178.06287135,179.57035812,-109.49843028,-175.59654259,175.40011958,-93.50000869
-130.76415684,-150.82537986,-104.33596139,100.84459811,83.23915592,-8.54433629
-7.53959789,8.66064570,2.36149954,-1.20881698,1.77014877

>  <Name>
1uts_lig

>  <RI>
0

>  <Rbt.Current_Directory>
/home/itssahil/PROJECTS/Mol_Feturizer/New_Systems/rnas/1uts

>  <Rbt.Executable>
rbdock ($Id: //depot/dev/client3/rdock/2013.1/src/exe/rbdock.cxx#4 $)

>  <Rbt.Library>
libRbt.so (2013.1, Build901 2013/11/27)

>  <Rbt.Parameter_File>
/export/apps/rDock/src/rDock_2013.1_src/data/scripts/dock_solv.prm

>  <Rbt.Receptor>
prm/blind_docking_80.prm

>  <SCORE>
-29.9291

>  <SCORE.INTER>
-34.6939

>  <SCORE.INTER.CONST>
1

>  <SCORE.INTER.POLAR>
-2.54089

>  <SCORE.INTER.ROT>
10

>  <SCORE.INTER.SOLV>
7.16777

>  <SCORE.INTER.VDW>
-27.3155

>  <SCORE.INTER.norm>
-1.15646

>  <SCORE.INTRA>
1.96539

>  <SCORE.INTRA.DIHEDRAL>
4.34219

>  <SCORE.INTRA.DIHEDRAL.0>
18.0451

>  <SCORE.INTRA.POLAR>
0.196815

>  <SCORE.INTRA.POLAR.0>
-0.196815

>  <SCORE.INTRA.REPUL>
0

>  <SCORE.INTRA.REPUL.0>
0

>  <SCORE.INTRA.SOLV>
-0.359193

>  <SCORE.INTRA.SOLV.lig_0>
-14.7906

>  <SCORE.INTRA.VDW>
-0.69528

>  <SCORE.INTRA.VDW.0>
-0.411701

>  <SCORE.INTRA.norm>
0.0655131

>  <SCORE.RESTR>
2.79942

>  <SCORE.RESTR.CAVITY>
2.79942

>  <SCORE.RESTR.norm>
0.0933141

>  <SCORE.SYSTEM>
0

>  <SCORE.SYSTEM.CONST>
0

>  <SCORE.SYSTEM.DIHEDRAL>
0

>  <SCORE.SYSTEM.SOLV>
0

>  <SCORE.SYSTEM.norm>
0

>  <SCORE.heavy>
30

>  <SCORE.norm>
-0.997635

>  <RMSD>
17.384

$$$$
1uts_lig
 OpenBabel11021811413D
libRbt.so/2013.1/901 2013/11/27
 30 33  0  0  0  0  0  0  0  0999 V2000
   -4.7306  -11.7597    3.8064 N   0  0  0  0  0  0  0  0  0  0  0  0
   -6.4119   -9.9838    4.0444 C   0  0  0  0  0  0  0  0  0  0  0  0
   -9.8763   -9.2382    6.5793 C   0  0  0  0  0  0  0  0  0  0  0  0
   -7.5272   -9.4476    4.9466 C   0  0  0  0  0  0  0  0  0  0  0  0
   -8.2718   -8.4454    4.2388 O   0  0  0  0  0  0  0  0  0  0  0  0
   -5.8912  -11.3078    4.6066 C   0  0  0  0  0  0  0  0  0  0  0  0
  -10.4306   -9.3679    7.9461 N   0  0  0  0  0  0  0  0  0  0  0  0
   -9.3226   -9.5510    8.9207 C   0  0  0  0  0  0  0  0  0  0  0  0
   -9.0050   -8.2159    9.6004 C   0  0  0  0  0  0  0  0  0  0  0  0
  -10.1673   -7.7865   10.4101 N   0  0  0  0  0  0  0  0  0  0  0  0
  -10.2176   -6.2966   10.4478 C   0  0  0  0  0  0  0  0  0  0  0  0
  -10.0398   -8.3377   11.7888 C   0  0  0  0  0  0  0  0  0  0  0  0
  -11.4216   -5.8468   11.2912 C   0  0  0  0  0  0  0  0  0  0  0  0
  -11.2430   -7.8849   12.6354 C   0  0  0  0  0  0  0  0  0  0  0  0
  -11.2940   -6.3968   12.6706 N   0  0  0  0  0  0  0  0  0  0  0  0
   -8.8457   -5.0524    5.7846 C   0  0  0  0  0  0  0  0  0  0  0  0
  -11.6802   -1.3940   10.2981 N   0  0  0  0  0  0  0  0  0  0  0  0
   -9.6340   -5.3897    6.9107 C   0  0  0  0  0  0  0  0  0  0  0  0
   -9.9647   -6.7480    7.1621 C   0  0  0  0  0  0  0  0  0  0  0  0
   -9.5039   -7.7705    6.2880 C   0  0  0  0  0  0  0  0  0  0  0  0
   -8.7228   -7.4265    5.1440 C   0  0  0  0  0  0  0  0  0  0  0  0
   -8.3923   -6.0654    4.8991 C   0  0  0  0  0  0  0  0  0  0  0  0
  -13.0307   -1.4965    9.8937 C   0  0  0  0  0  0  0  0  0  0  0  0
  -13.1828   -2.4736    8.8838 C   0  0  0  0  0  0  0  0  0  0  0  0
  -11.4604   -4.0134    7.7767 C   0  0  0  0  0  0  0  0  0  0  0  0
  -10.0860   -4.3760    7.7673 C   0  0  0  0  0  0  0  0  0  0  0  0
   -9.1723   -3.7139    8.6327 C   0  0  0  0  0  0  0  0  0  0  0  0
   -9.6333   -2.6930    9.5072 C   0  0  0  0  0  0  0  0  0  0  0  0
  -11.0190   -2.3401    9.5242 C   0  0  0  0  0  0  0  0  0  0  0  0
  -11.9244   -2.9936    8.6682 C   0  0  0  0  0  0  0  0  0  0  0  0
  1  6  1  0  0  0  0
  2  4  1  0  0  0  0
  3  7  1  0  0  0  0
  4  5  1  0  0  0  0
  6  2  1  0  0  0  0
  7  8  1  0  0  0  0
  8  9  1  0  0  0  0
  9 10  1  0  0  0  0
 10 11  1  0  0  0  0
 10 12  1  0  0  0  0
 11 13  1  0  0  0  0
 13 15  1  0  0  0  0
 14 12  1  0  0  0  0
 15 14  1  0  0  0  0
 16 18  2  0  0  0  0
 16 22  1  0  0  0  0
 17 23  1  0  0  0  0
 17 29  1  0  0  0  0
 18 19  1  0  0  0  0
 18 26  1  0  0  0  0
 19 20  2  0  0  0  0
 20  3  1  0  0  0  0
 20 21  1  0  0  0  0
 21  5  1  0  0  0  0
 21 22  2  0  0  0  0
 23 24  2  0  0  0  0
 24 30  1  0  0  0  0
 25 26  2  0  0  0  0
 25 30  1  0  0  0  0
 26 27  1  0  0  0  0
 27 28  2  0  0  0  0
 28 29  1  0  0  0  0
 29 30  2  0  0  0  0
M  END
>  <CHROM.1>
-44.98902087,-163.23204995,-86.34931973,-146.01253991,-174.74270672,99.20922921
65.01439491,-149.29851552,108.27588953,-12.92356763,-55.70001438,-9.68546283
-6.60096750,8.04567277,-0.14829441,1.06630842,-0.70376663

>  <Name>
1uts_lig

>  <RI>
0

>  <Rbt.Current_Directory>
/home/itssahil/PROJECTS/Mol_Feturizer/New_Systems/rnas/1uts

>  <Rbt.Executable>
rbdock ($Id: //depot/dev/client3/rdock/2013.1/src/exe/rbdock.cxx#4 $)

>  <Rbt.Library>
libRbt.so (2013.1, Build901 2013/11/27)

>  <Rbt.Parameter_File>
/export/apps/rDock/src/rDock_2013.1_src/data/scripts/dock_solv.prm

>  <Rbt.Receptor>
prm/blind_docking_60.prm

>  <SCORE>
-19.9045

>  <SCORE.INTER>
-26.8498

>  <SCORE.INTER.CONST>
1

>  <SCORE.INTER.POLAR>
-2.64074

>  <SCORE.INTER.ROT>
10

>  <SCORE.INTER.SOLV>
8.9307

>  <SCORE.INTER.VDW>
-22.3409

>  <SCORE.INTER.norm>
-0.894992

>  <SCORE.INTRA>
4.03344

>  <SCORE.INTRA.DIHEDRAL>
2.28538

>  <SCORE.INTRA.DIHEDRAL.0>
18.0451

>  <SCORE.INTRA.POLAR>
0.196815

>  <SCORE.INTRA.POLAR.0>
-0.196815

>  <SCORE.INTRA.REPUL>
0

>  <SCORE.INTRA.REPUL.0>
0

>  <SCORE.INTRA.SOLV>
-0.168751

>  <SCORE.INTRA.SOLV.lig_0>
-14.7906

>  <SCORE.INTRA.VDW>
2.30595

>  <SCORE.INTRA.VDW.0>
-0.411701

>  <SCORE.INTRA.norm>
0.134448

>  <SCORE.RESTR>
2.91186

>  <SCORE.RESTR.CAVITY>
2.91186

>  <SCORE.RESTR.norm>
0.0970618

>  <SCORE.SYSTEM>
0

>  <SCORE.SYSTEM.CONST>
0

>  <SCORE.SYSTEM.DIHEDRAL>
0

>  <SCORE.SYSTEM.SOLV>
0

>  <SCORE.SYSTEM.norm>
0

>  <SCORE.heavy>
30

>  <SCORE.norm>
-0.663482

>  <RMSD>
17.415

$$$$
1uts_lig
 OpenBabel11021811413D
libRbt.so/2013.1/901 2013/11/27
 30 33  0  0  0  0  0  0  0  0999 V2000
  -10.4603   -8.4605   14.2763 N   0  0  0  0  0  0  0  0  0  0  0  0
   -9.6162   -6.1535   14.2260 C   0  0  0  0  0  0  0  0  0  0  0  0
  -11.9956   -6.7200    9.5740 C   0  0  0  0  0  0  0  0  0  0  0  0
   -9.4677   -5.9883   12.7108 C   0  0  0  0  0  0  0  0  0  0  0  0
  -10.3950   -6.8573   12.0439 O   0  0  0  0  0  0  0  0  0  0  0  0
   -9.3048   -7.5997   14.6159 C   0  0  0  0  0  0  0  0  0  0  0  0
  -11.9566   -5.2559    9.7909 N   0  0  0  0  0  0  0  0  0  0  0  0
  -11.5403   -4.5747    8.5364 C   0  0  0  0  0  0  0  0  0  0  0  0
  -12.2703   -3.2345    8.4080 C   0  0  0  0  0  0  0  0  0  0  0  0
  -11.5755   -2.2148    9.2256 N   0  0  0  0  0  0  0  0  0  0  0  0
  -10.1173   -2.2448    8.9152 C   0  0  0  0  0  0  0  0  0  0  0  0
  -11.8057   -2.4992   10.6703 C   0  0  0  0  0  0  0  0  0  0  0  0
   -9.3917   -1.1895    9.7655 C   0  0  0  0  0  0  0  0  0  0  0  0
  -11.0764   -1.4452   11.5229 C   0  0  0  0  0  0  0  0  0  0  0  0
   -9.6204   -1.4740   11.2105 N   0  0  0  0  0  0  0  0  0  0  0  0
   -7.9471   -8.3998    9.6232 C   0  0  0  0  0  0  0  0  0  0  0  0
   -6.6462  -10.5006    3.6329 N   0  0  0  0  0  0  0  0  0  0  0  0
   -8.6900   -8.3686    8.4188 C   0  0  0  0  0  0  0  0  0  0  0  0
  -10.0015   -7.8233    8.4100 C   0  0  0  0  0  0  0  0  0  0  0  0
  -10.5695   -7.3058    9.6064 C   0  0  0  0  0  0  0  0  0  0  0  0
   -9.8249   -7.3531   10.8232 C   0  0  0  0  0  0  0  0  0  0  0  0
   -8.5113   -7.8973   10.8253 C   0  0  0  0  0  0  0  0  0  0  0  0
   -7.8068  -11.2092    3.2474 C   0  0  0  0  0  0  0  0  0  0  0  0
   -8.8323  -11.0601    4.2085 C   0  0  0  0  0  0  0  0  0  0  0  0
   -8.8862   -9.7371    6.4018 C   0  0  0  0  0  0  0  0  0  0  0  0
   -8.1239   -8.8821    7.2435 C   0  0  0  0  0  0  0  0  0  0  0  0
   -6.7894   -8.5433    6.8878 C   0  0  0  0  0  0  0  0  0  0  0  0
   -6.2199   -9.0571    5.6914 C   0  0  0  0  0  0  0  0  0  0  0  0
   -6.9941   -9.9057    4.8397 C   0  0  0  0  0  0  0  0  0  0  0  0
   -8.3144  -10.2425    5.1903 C   0  0  0  0  0  0  0  0  0  0  0  0
  1  6  1  0  0  0  0
  2  4  1  0  0  0  0
  3  7  1  0  0  0  0
  4  5  1  0  0  0  0
  6  2  1  0  0  0  0
  7  8  1  0  0  0  0
  8  9  1  0  0  0  0
  9 10  1  0  0  0  0
 10 11  1  0  0  0  0
 10 12  1  0  0  0  0
 11 13  1  0  0  0  0
 13 15  1  0  0  0  0
 14 12  1  0  0  0  0
 15 14  1  0  0  0  0
 16 18  2  0  0  0  0
 16 22  1  0  0  0  0
 17 23  1  0  0  0  0
 17 29  1  0  0  0  0
 18 19  1  0  0  0  0
 18 26  1  0  0  0  0
 19 20  2  0  0  0  0
 20  3  1  0  0  0  0
 20 21  1  0  0  0  0
 21  5  1  0  0  0  0
 21 22  2  0  0  0  0
 23 24  2  0  0  0  0
 24 30  1  0  0  0  0
 25 26  2  0  0  0  0
 25 30  1  0  0  0  0
 26 27  1  0  0  0  0
 27 28  2  0  0  0  0
 28 29  1  0  0  0  0
 29 30  2  0  0  0  0
M  END
>  <CHROM.1>
-68.71681334,60.82412973,77.93783404,-145.30331635,-77.01876891,145.08337812
81.47515979,49.66568842,134.22322708,-111.68946398,-131.62863769,-9.56171098
-6.61126677,9.15544523,-2.77836723,1.21896417,-1.18541983

>  <Name>
1uts_lig

>  <RI>
0

>  <Rbt.Current_Directory>
/home/itssahil/PROJECTS/Mol_Feturizer/New_Systems/rnas/1uts

>  <Rbt.Executable>
rbdock ($Id: //depot/dev/client3/rdock/2013.1/src/exe/rbdock.cxx#4 $)

>  <Rbt.Library>
libRbt.so (2013.1, Build901 2013/11/27)

>  <Rbt.Parameter_File>
/export/apps/rDock/src/rDock_2013.1_src/data/scripts/dock_solv.prm

>  <Rbt.Receptor>
prm/blind_docking_80.prm

>  <SCORE>
-25.4557

>  <SCORE.INTER>
-27.4514

>  <SCORE.INTER.CONST>
1

>  <SCORE.INTER.POLAR>
-1.47439

>  <SCORE.INTER.ROT>
10

>  <SCORE.INTER.SOLV>
6.2138

>  <SCORE.INTER.VDW>
-25.7242

>  <SCORE.INTER.norm>
-0.915045

>  <SCORE.INTRA>
1.94072

>  <SCORE.INTRA.DIHEDRAL>
-1.65773

>  <SCORE.INTRA.DIHEDRAL.0>
18.0451

>  <SCORE.INTRA.POLAR>
-0.469545

>  <SCORE.INTRA.POLAR.0>
-0.196815

>  <SCORE.INTRA.REPUL>
0

>  <SCORE.INTRA.REPUL.0>
0

>  <SCORE.INTRA.SOLV>
0.435238

>  <SCORE.INTRA.SOLV.lig_0>
-14.7906

>  <SCORE.INTRA.VDW>
4.14842

>  <SCORE.INTRA.VDW.0>
-0.411701

>  <SCORE.INTRA.norm>
0.0646907

>  <SCORE.RESTR>
0.0549834

>  <SCORE.RESTR.CAVITY>
0.0549834

>  <SCORE.RESTR.norm>
0.00183278

>  <SCORE.SYSTEM>
0

>  <SCORE.SYSTEM.CONST>
0

>  <SCORE.SYSTEM.DIHEDRAL>
0

>  <SCORE.SYSTEM.SOLV>
0

>  <SCORE.SYSTEM.norm>
0

>  <SCORE.heavy>
30

>  <SCORE.norm>
-0.848522

>  <RMSD>
17.442

$$$$
1uts_lig
 OpenBabel11021811413D
libRbt.so/2013.1/901 2013/11/27
 30 33  0  0  0  0  0  0  0  0999 V2000
   -9.1185   -8.3144   15.7307 N   0  0  0  0  0  0  0  0  0  0  0  0
  -10.3319   -9.4282   13.9074 C   0  0  0  0  0  0  0  0  0  0  0  0
   -9.4079   -4.9075   11.7713 C   0  0  0  0  0  0  0  0  0  0  0  0
  -11.3913   -8.4201   13.4529 C   0  0  0  0  0  0  0  0  0  0  0  0
  -10.7467   -7.2075   13.0356 O   0  0  0  0  0  0  0  0  0  0  0  0
  -10.1500   -9.3307   15.4232 C   0  0  0  0  0  0  0  0  0  0  0  0
   -9.3021   -3.8556   10.7348 N   0  0  0  0  0  0  0  0  0  0  0  0
  -10.6403   -3.2544   10.4927 C   0  0  0  0  0  0  0  0  0  0  0  0
  -11.1627   -3.6890    9.1203 C   0  0  0  0  0  0  0  0  0  0  0  0
  -11.5867   -5.1059    9.1807 N   0  0  0  0  0  0  0  0  0  0  0  0
  -11.2191   -5.7846    7.9047 C   0  0  0  0  0  0  0  0  0  0  0  0
  -13.0593   -5.1722    9.3996 C   0  0  0  0  0  0  0  0  0  0  0  0
  -11.6614   -7.2557    7.9622 C   0  0  0  0  0  0  0  0  0  0  0  0
  -13.5039   -6.6449    9.4537 C   0  0  0  0  0  0  0  0  0  0  0  0
  -13.1344   -7.3227    8.1799 N   0  0  0  0  0  0  0  0  0  0  0  0
   -9.5170   -8.8574    9.8738 C   0  0  0  0  0  0  0  0  0  0  0  0
   -6.4386   -8.7957    4.2621 N   0  0  0  0  0  0  0  0  0  0  0  0
   -8.8787   -7.7736    9.2247 C   0  0  0  0  0  0  0  0  0  0  0  0
   -8.8475   -6.4961    9.8450 C   0  0  0  0  0  0  0  0  0  0  0  0
   -9.4525   -6.3032   11.1172 C   0  0  0  0  0  0  0  0  0  0  0  0
  -10.1097   -7.3936   11.7625 C   0  0  0  0  0  0  0  0  0  0  0  0
  -10.1352   -8.6708   11.1383 C   0  0  0  0  0  0  0  0  0  0  0  0
   -5.7862   -9.9940    4.6314 C   0  0  0  0  0  0  0  0  0  0  0  0
   -6.0349  -10.3074    5.9870 C   0  0  0  0  0  0  0  0  0  0  0  0
   -7.4452   -9.0961    7.7498 C   0  0  0  0  0  0  0  0  0  0  0  0
   -8.2857   -7.9710    7.9698 C   0  0  0  0  0  0  0  0  0  0  0  0
   -8.5292   -7.0507    6.9134 C   0  0  0  0  0  0  0  0  0  0  0  0
   -7.9348   -7.2571    5.6392 C   0  0  0  0  0  0  0  0  0  0  0  0
   -7.1009   -8.3973    5.4169 C   0  0  0  0  0  0  0  0  0  0  0  0
   -6.8584   -9.3086    6.4611 C   0  0  0  0  0  0  0  0  0  0  0  0
  1  6  1  0  0  0  0
  2  4  1  0  0  0  0
  3  7  1  0  0  0  0
  4  5  1  0  0  0  0
  6  2  1  0  0  0  0
  7  8  1  0  0  0  0
  8  9  1  0  0  0  0
  9 10  1  0  0  0  0
 10 11  1  0  0  0  0
 10 12  1  0  0  0  0
 11 13  1  0  0  0  0
 13 15  1  0  0  0  0
 14 12  1  0  0  0  0
 15 14  1  0  0  0  0
 16 18  2  0  0  0  0
 16 22  1  0  0  0  0
 17 23  1  0  0  0  0
 17 29  1  0  0  0  0
 18 19  1  0  0  0  0
 18 26  1  0  0  0  0
 19 20  2  0  0  0  0
 20  3  1  0  0  0  0
 20 21  1  0  0  0  0
 21  5  1  0  0  0  0
 21 22  2  0  0  0  0
 23 24  2  0  0  0  0
 24 30  1  0  0  0  0
 25 26  2  0  0  0  0
 25 30  1  0  0  0  0
 26 27  1  0  0  0  0
 27 28  2  0  0  0  0
 28 29  1  0  0  0  0
 29 30  2  0  0  0  0
M  END
>  <CHROM.1>
-169.70713231,94.51317278,100.02489317,73.95955628,-88.74765329,-108.93101905
73.74347418,-142.06247800,-46.84025648,26.54101050,177.22581797,-9.66816491
-7.26075193,9.56247154,-2.23960175,0.80941543,-1.26517541

>  <Name>
1uts_lig

>  <RI>
0

>  <Rbt.Current_Directory>
/home/itssahil/PROJECTS/Mol_Feturizer/New_Systems/rnas/1uts

>  <Rbt.Executable>
rbdock ($Id: //depot/dev/client3/rdock/2013.1/src/exe/rbdock.cxx#4 $)

>  <Rbt.Library>
libRbt.so (2013.1, Build901 2013/11/27)

>  <Rbt.Parameter_File>
/export/apps/rDock/src/rDock_2013.1_src/data/scripts/dock_solv.prm

>  <Rbt.Receptor>
prm/blind_docking_40.prm

>  <SCORE>
2.43167

>  <SCORE.INTER>
-14.789

>  <SCORE.INTER.CONST>
1

>  <SCORE.INTER.POLAR>
-0.990282

>  <SCORE.INTER.ROT>
10

>  <SCORE.INTER.SOLV>
7.3977

>  <SCORE.INTER.VDW>
-19.291

>  <SCORE.INTER.norm>
-0.492967

>  <SCORE.INTRA>
8.27267

>  <SCORE.INTRA.DIHEDRAL>
1.54421

>  <SCORE.INTRA.DIHEDRAL.0>
18.0451

>  <SCORE.INTRA.POLAR>
0.196815

>  <SCORE.INTRA.POLAR.0>
-0.196815

>  <SCORE.INTRA.REPUL>
0

>  <SCORE.INTRA.REPUL.0>
0

>  <SCORE.INTRA.SOLV>
0.311467

>  <SCORE.INTRA.SOLV.lig_0>
-14.7906

>  <SCORE.INTRA.VDW>
6.67566

>  <SCORE.INTRA.VDW.0>
-0.411701

>  <SCORE.INTRA.norm>
0.275756

>  <SCORE.RESTR>
8.94801

>  <SCORE.RESTR.CAVITY>
8.94801

>  <SCORE.RESTR.norm>
0.298267

>  <SCORE.SYSTEM>
0

>  <SCORE.SYSTEM.CONST>
0

>  <SCORE.SYSTEM.DIHEDRAL>
0

>  <SCORE.SYSTEM.SOLV>
0

>  <SCORE.SYSTEM.norm>
0

>  <SCORE.heavy>
30

>  <SCORE.norm>
0.0810557

>  <RMSD>
17.459

$$$$
1uts_lig
 OpenBabel11021811413D
libRbt.so/2013.1/901 2013/11/27
 30 33  0  0  0  0  0  0  0  0999 V2000
   -9.7084   -8.3967   16.2101 N   0  0  0  0  0  0  0  0  0  0  0  0
  -11.0808   -8.5906   14.1813 C   0  0  0  0  0  0  0  0  0  0  0  0
   -9.2281   -5.5334   10.3710 C   0  0  0  0  0  0  0  0  0  0  0  0
  -10.8871   -8.8425   12.6832 C   0  0  0  0  0  0  0  0  0  0  0  0
  -10.2794   -7.6900   12.0813 O   0  0  0  0  0  0  0  0  0  0  0  0
   -9.8890   -9.1588   14.9539 C   0  0  0  0  0  0  0  0  0  0  0  0
   -9.0311   -5.4064   11.8329 N   0  0  0  0  0  0  0  0  0  0  0  0
   -8.8551   -3.9742   12.1920 C   0  0  0  0  0  0  0  0  0  0  0  0
  -10.2163   -3.2723   12.2039 C   0  0  0  0  0  0  0  0  0  0  0  0
  -10.6430   -3.0014   10.8127 N   0  0  0  0  0  0  0  0  0  0  0  0
   -9.5705   -2.2418   10.1079 C   0  0  0  0  0  0  0  0  0  0  0  0
  -11.9107   -2.2181   10.8284 C   0  0  0  0  0  0  0  0  0  0  0  0
  -10.0119   -1.9551    8.6635 C   0  0  0  0  0  0  0  0  0  0  0  0
  -12.3516   -1.9272    9.3825 C   0  0  0  0  0  0  0  0  0  0  0  0
  -11.2791   -1.1707    8.6785 N   0  0  0  0  0  0  0  0  0  0  0  0
   -9.1117   -9.7377    9.1359 C   0  0  0  0  0  0  0  0  0  0  0  0
   -6.7157  -10.2491    3.2054 N   0  0  0  0  0  0  0  0  0  0  0  0
   -8.6124   -8.7296    8.2770 C   0  0  0  0  0  0  0  0  0  0  0  0
   -8.6535   -7.3692    8.6832 C   0  0  0  0  0  0  0  0  0  0  0  0
   -9.1919   -7.0168    9.9512 C   0  0  0  0  0  0  0  0  0  0  0  0
   -9.7098   -8.0333   10.8090 C   0  0  0  0  0  0  0  0  0  0  0  0
   -9.6631   -9.3937   10.3983 C   0  0  0  0  0  0  0  0  0  0  0  0
   -7.8074  -11.0736    2.8502 C   0  0  0  0  0  0  0  0  0  0  0  0
   -8.7622  -11.1239    3.8911 C   0  0  0  0  0  0  0  0  0  0  0  0
   -8.8011   -9.9714    6.1789 C   0  0  0  0  0  0  0  0  0  0  0  0
   -8.0844   -9.0845    7.0277 C   0  0  0  0  0  0  0  0  0  0  0  0
   -6.8351   -8.5530    6.6046 C   0  0  0  0  0  0  0  0  0  0  0  0
   -6.3055   -8.9063    5.3340 C   0  0  0  0  0  0  0  0  0  0  0  0
   -7.0355   -9.7877    4.4766 C   0  0  0  0  0  0  0  0  0  0  0  0
   -8.2713  -10.3151    4.8938 C   0  0  0  0  0  0  0  0  0  0  0  0
  1  6  1  0  0  0  0
  2  4  1  0  0  0  0
  3  7  1  0  0  0  0
  4  5  1  0  0  0  0
  6  2  1  0  0  0  0
  7  8  1  0  0  0  0
  8  9  1  0  0  0  0
  9 10  1  0  0  0  0
 10 11  1  0  0  0  0
 10 12  1  0  0  0  0
 11 13  1  0  0  0  0
 13 15  1  0  0  0  0
 14 12  1  0  0  0  0
 15 14  1  0  0  0  0
 16 18  2  0  0  0  0
 16 22  1  0  0  0  0
 17 23  1  0  0  0  0
 17 29  1  0  0  0  0
 18 19  1  0  0  0  0
 18 26  1  0  0  0  0
 19 20  2  0  0  0  0
 20  3  1  0  0  0  0
 20 21  1  0  0  0  0
 21  5  1  0  0  0  0
 21 22  2  0  0  0  0
 23 24  2  0  0  0  0
 24 30  1  0  0  0  0
 25 26  2  0  0  0  0
 25 30  1  0  0  0  0
 26 27  1  0  0  0  0
 27 28  2  0  0  0  0
 28 29  1  0  0  0  0
 29 30  2  0  0  0  0
M  END
>  <CHROM.1>
156.75586961,-94.46605034,171.17372833,161.98179999,152.46668339,77.93988291
-77.15385675,-54.31203945,47.73220616,-146.41850899,172.43739836,-9.33916502
-6.96548419,9.39378859,-2.98571666,1.26745574,-0.81981565

>  <Name>
1uts_lig

>  <RI>
0

>  <Rbt.Current_Directory>
/home/itssahil/PROJECTS/Mol_Feturizer/New_Systems/rnas/1uts

>  <Rbt.Executable>
rbdock ($Id: //depot/dev/client3/rdock/2013.1/src/exe/rbdock.cxx#4 $)

>  <Rbt.Library>
libRbt.so (2013.1, Build901 2013/11/27)

>  <Rbt.Parameter_File>
/export/apps/rDock/src/rDock_2013.1_src/data/scripts/dock_solv.prm

>  <Rbt.Receptor>
prm/blind_docking_80.prm

>  <SCORE>
-31.7695

>  <SCORE.INTER>
-37.2625

>  <SCORE.INTER.CONST>
1

>  <SCORE.INTER.POLAR>
-3.25578

>  <SCORE.INTER.ROT>
10

>  <SCORE.INTER.SOLV>
10.1586

>  <SCORE.INTER.VDW>
-27.642

>  <SCORE.INTER.norm>
-1.24208

>  <SCORE.INTRA>
5.18166

>  <SCORE.INTRA.DIHEDRAL>
-4.08571

>  <SCORE.INTRA.DIHEDRAL.0>
18.0451

>  <SCORE.INTRA.POLAR>
-0.160955

>  <SCORE.INTRA.POLAR.0>
-0.196815

>  <SCORE.INTRA.REPUL>
0

>  <SCORE.INTRA.REPUL.0>
0

>  <SCORE.INTRA.SOLV>
-0.0103384

>  <SCORE.INTRA.SOLV.lig_0>
-14.7906

>  <SCORE.INTRA.VDW>
7.77693

>  <SCORE.INTRA.VDW.0>
-0.411701

>  <SCORE.INTRA.norm>
0.172722

>  <SCORE.RESTR>
0.311343

>  <SCORE.RESTR.CAVITY>
0.311343

>  <SCORE.RESTR.norm>
0.0103781

>  <SCORE.SYSTEM>
0

>  <SCORE.SYSTEM.CONST>
0

>  <SCORE.SYSTEM.DIHEDRAL>
0

>  <SCORE.SYSTEM.SOLV>
0

>  <SCORE.SYSTEM.norm>
0

>  <SCORE.heavy>
30

>  <SCORE.norm>
-1.05898

>  <RMSD>
17.466

$$$$
1uts_lig
 OpenBabel11021811413D
libRbt.so/2013.1/901 2013/11/27
 30 33  0  0  0  0  0  0  0  0999 V2000
  -10.3892   -1.1801    8.6349 N   0  0  0  0  0  0  0  0  0  0  0  0
  -10.1260   -3.3175    9.8179 C   0  0  0  0  0  0  0  0  0  0  0  0
   -9.9772   -7.2646    9.3847 C   0  0  0  0  0  0  0  0  0  0  0  0
   -9.3937   -3.9409    8.6261 C   0  0  0  0  0  0  0  0  0  0  0  0
  -10.3089   -4.7546    7.8777 O   0  0  0  0  0  0  0  0  0  0  0  0
  -11.1225   -2.2711    9.3157 C   0  0  0  0  0  0  0  0  0  0  0  0
   -8.9165   -6.9944   10.3817 N   0  0  0  0  0  0  0  0  0  0  0  0
   -9.4205   -6.0378   11.4024 C   0  0  0  0  0  0  0  0  0  0  0  0
  -10.4739   -6.7224   12.2784 C   0  0  0  0  0  0  0  0  0  0  0  0
   -9.7994   -7.5257   13.3227 N   0  0  0  0  0  0  0  0  0  0  0  0
  -10.7327   -8.5812   13.8114 C   0  0  0  0  0  0  0  0  0  0  0  0
   -9.3896   -6.6341   14.4443 C   0  0  0  0  0  0  0  0  0  0  0  0
  -10.0369   -9.4153   14.8992 C   0  0  0  0  0  0  0  0  0  0  0  0
   -8.6960   -7.4688   15.5359 C   0  0  0  0  0  0  0  0  0  0  0  0
   -9.6279   -8.5242   16.0217 N   0  0  0  0  0  0  0  0  0  0  0  0
   -8.4008   -6.7723    5.3242 C   0  0  0  0  0  0  0  0  0  0  0  0
   -5.4930  -12.1220    3.3400 N   0  0  0  0  0  0  0  0  0  0  0  0
   -8.2045   -7.9884    6.0212 C   0  0  0  0  0  0  0  0  0  0  0  0
   -8.7175   -8.1411    7.3368 C   0  0  0  0  0  0  0  0  0  0  0  0
   -9.4304   -7.0774    7.9550 C   0  0  0  0  0  0  0  0  0  0  0  0
   -9.6131   -5.8461    7.2567 C   0  0  0  0  0  0  0  0  0  0  0  0
   -9.1000   -5.7001    5.9387 C   0  0  0  0  0  0  0  0  0  0  0  0
   -6.2821  -12.1170    2.1674 C   0  0  0  0  0  0  0  0  0  0  0  0
   -7.3122  -11.1533    2.2557 C   0  0  0  0  0  0  0  0  0  0  0  0
   -7.8906   -9.4930    4.1193 C   0  0  0  0  0  0  0  0  0  0  0  0
   -7.4994   -9.0322    5.4058 C   0  0  0  0  0  0  0  0  0  0  0  0
   -6.3878   -9.6269    6.0638 C   0  0  0  0  0  0  0  0  0  0  0  0
   -5.6682  -10.6787    5.4350 C   0  0  0  0  0  0  0  0  0  0  0  0
   -6.0557  -11.1306    4.1347 C   0  0  0  0  0  0  0  0  0  0  0  0
   -7.1555  -10.5438    3.4824 C   0  0  0  0  0  0  0  0  0  0  0  0
  1  6  1  0  0  0  0
  2  4  1  0  0  0  0
  3  7  1  0  0  0  0
  4  5  1  0  0  0  0
  6  2  1  0  0  0  0
  7  8  1  0  0  0  0
  8  9  1  0  0  0  0
  9 10  1  0  0  0  0
 10 11  1  0  0  0  0
 10 12  1  0  0  0  0
 11 13  1  0  0  0  0
 13 15  1  0  0  0  0
 14 12  1  0  0  0  0
 15 14  1  0  0  0  0
 16 18  2  0  0  0  0
 16 22  1  0  0  0  0
 17 23  1  0  0  0  0
 17 29  1  0  0  0  0
 18 19  1  0  0  0  0
 18 26  1  0  0  0  0
 19 20  2  0  0  0  0
 20  3  1  0  0  0  0
 20 21  1  0  0  0  0
 21  5  1  0  0  0  0
 21 22  2  0  0  0  0
 23 24  2  0  0  0  0
 24 30  1  0  0  0  0
 25 26  2  0  0  0  0
 25 30  1  0  0  0  0
 26 27  1  0  0  0  0
 27 28  2  0  0  0  0
 28 29  1  0  0  0  0
 29 30  2  0  0  0  0
M  END
>  <CHROM.1>
-155.12614786,-69.61544546,129.48087376,-149.54971608,-62.82534089,70.00243926
81.45806864,-157.84249531,-53.11463678,82.93666587,88.32408758,-8.77963664
-7.49468655,8.59526201,2.47668922,-1.18282918,2.03108698

>  <Name>
1uts_lig

>  <RI>
0

>  <Rbt.Current_Directory>
/home/itssahil/PROJECTS/Mol_Feturizer/New_Systems/rnas/1uts

>  <Rbt.Executable>
rbdock ($Id: //depot/dev/client3/rdock/2013.1/src/exe/rbdock.cxx#4 $)

>  <Rbt.Library>
libRbt.so (2013.1, Build901 2013/11/27)

>  <Rbt.Parameter_File>
/export/apps/rDock/src/rDock_2013.1_src/data/scripts/dock_solv.prm

>  <Rbt.Receptor>
prm/blind_docking_80.prm

>  <SCORE>
-44.2046

>  <SCORE.INTER>
-47.7694

>  <SCORE.INTER.CONST>
1

>  <SCORE.INTER.POLAR>
-4.02717

>  <SCORE.INTER.ROT>
10

>  <SCORE.INTER.SOLV>
7.9935

>  <SCORE.INTER.VDW>
-31.3535

>  <SCORE.INTER.norm>
-1.59231

>  <SCORE.INTRA>
1.88503

>  <SCORE.INTRA.DIHEDRAL>
2.17902

>  <SCORE.INTRA.DIHEDRAL.0>
18.0451

>  <SCORE.INTRA.POLAR>
0.196815

>  <SCORE.INTRA.POLAR.0>
-0.196815

>  <SCORE.INTRA.REPUL>
0

>  <SCORE.INTRA.REPUL.0>
0

>  <SCORE.INTRA.SOLV>
0.0112361

>  <SCORE.INTRA.SOLV.lig_0>
-14.7906

>  <SCORE.INTRA.VDW>
0.120731

>  <SCORE.INTRA.VDW.0>
-0.411701

>  <SCORE.INTRA.norm>
0.0628343

>  <SCORE.RESTR>
1.67973

>  <SCORE.RESTR.CAVITY>
1.67973

>  <SCORE.RESTR.norm>
0.0559909

>  <SCORE.SYSTEM>
0

>  <SCORE.SYSTEM.CONST>
0

>  <SCORE.SYSTEM.DIHEDRAL>
0

>  <SCORE.SYSTEM.SOLV>
0

>  <SCORE.SYSTEM.norm>
0

>  <SCORE.heavy>
30

>  <SCORE.norm>
-1.47349

>  <RMSD>
17.468

$$$$
1uts_lig
 OpenBabel11021811413D
libRbt.so/2013.1/901 2013/11/27
 30 33  0  0  0  0  0  0  0  0999 V2000
  -10.0875   -0.8808   11.1427 N   0  0  0  0  0  0  0  0  0  0  0  0
  -10.6661   -2.4277    9.3236 C   0  0  0  0  0  0  0  0  0  0  0  0
  -11.0901   -6.9669    8.6310 C   0  0  0  0  0  0  0  0  0  0  0  0
   -9.8889   -3.4772    8.5237 C   0  0  0  0  0  0  0  0  0  0  0  0
  -10.7954   -4.1959    7.6742 O   0  0  0  0  0  0  0  0  0  0  0  0
   -9.7117   -1.3231    9.7809 C   0  0  0  0  0  0  0  0  0  0  0  0
  -10.3098   -7.7719    9.5982 N   0  0  0  0  0  0  0  0  0  0  0  0
   -9.9268   -6.9262   10.7597 C   0  0  0  0  0  0  0  0  0  0  0  0
  -11.1627   -6.6291   11.6139 C   0  0  0  0  0  0  0  0  0  0  0  0
  -11.0021   -7.2529   12.9465 N   0  0  0  0  0  0  0  0  0  0  0  0
   -9.8459   -6.6247   13.6482 C   0  0  0  0  0  0  0  0  0  0  0  0
  -10.7780   -8.7171   12.7829 C   0  0  0  0  0  0  0  0  0  0  0  0
   -9.6736   -7.2729   15.0314 C   0  0  0  0  0  0  0  0  0  0  0  0
  -10.6016   -9.3668   14.1672 C   0  0  0  0  0  0  0  0  0  0  0  0
   -9.4482   -8.7371   14.8683 N   0  0  0  0  0  0  0  0  0  0  0  0
   -8.5980   -5.9623    5.1677 C   0  0  0  0  0  0  0  0  0  0  0  0
   -5.8023  -11.4265    3.1078 N   0  0  0  0  0  0  0  0  0  0  0  0
   -8.6988   -7.3042    5.6065 C   0  0  0  0  0  0  0  0  0  0  0  0
   -9.5077   -7.6227    6.7297 C   0  0  0  0  0  0  0  0  0  0  0  0
  -10.2191   -6.5985    7.4130 C   0  0  0  0  0  0  0  0  0  0  0  0
  -10.1030   -5.2438    6.9788 C   0  0  0  0  0  0  0  0  0  0  0  0
   -9.2943   -4.9313    5.8519 C   0  0  0  0  0  0  0  0  0  0  0  0
   -5.1223  -11.8851    4.2589 C   0  0  0  0  0  0  0  0  0  0  0  0
   -5.4670  -11.1121    5.3908 C   0  0  0  0  0  0  0  0  0  0  0  0
   -7.0806   -9.1372    5.6361 C   0  0  0  0  0  0  0  0  0  0  0  0
   -7.9934   -8.3084    4.9287 C   0  0  0  0  0  0  0  0  0  0  0  0
   -8.1947   -8.5043    3.5347 C   0  0  0  0  0  0  0  0  0  0  0  0
   -7.4859   -9.5286    2.8507 C   0  0  0  0  0  0  0  0  0  0  0  0
   -6.5787  -10.3698    3.5679 C   0  0  0  0  0  0  0  0  0  0  0  0
   -6.3777  -10.1771    4.9469 C   0  0  0  0  0  0  0  0  0  0  0  0
  1  6  1  0  0  0  0
  2  4  1  0  0  0  0
  3  7  1  0  0  0  0
  4  5  1  0  0  0  0
  6  2  1  0  0  0  0
  7  8  1  0  0  0  0
  8  9  1  0  0  0  0
  9 10  1  0  0  0  0
 10 11  1  0  0  0  0
 10 12  1  0  0  0  0
 11 13  1  0  0  0  0
 13 15  1  0  0  0  0
 14 12  1  0  0  0  0
 15 14  1  0  0  0  0
 16 18  2  0  0  0  0
 16 22  1  0  0  0  0
 17 23  1  0  0  0  0
 17 29  1  0  0  0  0
 18 19  1  0  0  0  0
 18 26  1  0  0  0  0
 19 20  2  0  0  0  0
 20  3  1  0  0  0  0
 20 21  1  0  0  0  0
 21  5  1  0  0  0  0
 21 22  2  0  0  0  0
 23 24  2  0  0  0  0
 24 30  1  0  0  0  0
 25 26  2  0  0  0  0
 25 30  1  0  0  0  0
 26 27  1  0  0  0  0
 27 28  2  0  0  0  0
 28 29  1  0  0  0  0
 29 30  2  0  0  0  0
M  END
>  <CHROM.1>
-19.13038353,-157.54013227,104.32337281,-176.25000800,-142.26234948,71.55338000
115.28307034,63.91545757,123.39100290,51.20382235,102.17817496,-9.12055540
-7.13654594,8.41634080,2.74890676,-1.17319682,2.26551281

>  <Name>
1uts_lig

>  <RI>
0

>  <Rbt.Current_Directory>
/home/itssahil/PROJECTS/Mol_Feturizer/New_Systems/rnas/1uts

>  <Rbt.Executable>
rbdock ($Id: //depot/dev/client3/rdock/2013.1/src/exe/rbdock.cxx#4 $)

>  <Rbt.Library>
libRbt.so (2013.1, Build901 2013/11/27)

>  <Rbt.Parameter_File>
/export/apps/rDock/src/rDock_2013.1_src/data/scripts/dock_solv.prm

>  <Rbt.Receptor>
prm/blind_docking_60.prm

>  <SCORE>
-16.7784

>  <SCORE.INTER>
-30.4335

>  <SCORE.INTER.CONST>
1

>  <SCORE.INTER.POLAR>
-1.50593

>  <SCORE.INTER.ROT>
10

>  <SCORE.INTER.SOLV>
7.61118

>  <SCORE.INTER.VDW>
-28.0729

>  <SCORE.INTER.norm>
-1.01445

>  <SCORE.INTRA>
8.11825

>  <SCORE.INTRA.DIHEDRAL>
7.79176

>  <SCORE.INTRA.DIHEDRAL.0>
18.0451

>  <SCORE.INTRA.POLAR>
0.196815

>  <SCORE.INTRA.POLAR.0>
-0.196815

>  <SCORE.INTRA.REPUL>
0

>  <SCORE.INTRA.REPUL.0>
0

>  <SCORE.INTRA.SOLV>
-0.458899

>  <SCORE.INTRA.SOLV.lig_0>
-14.7906

>  <SCORE.INTRA.VDW>
3.78265

>  <SCORE.INTRA.VDW.0>
-0.411701

>  <SCORE.INTRA.norm>
0.270608

>  <SCORE.RESTR>
5.53683

>  <SCORE.RESTR.CAVITY>
5.53683

>  <SCORE.RESTR.norm>
0.184561

>  <SCORE.SYSTEM>
0

>  <SCORE.SYSTEM.CONST>
0

>  <SCORE.SYSTEM.DIHEDRAL>
0

>  <SCORE.SYSTEM.SOLV>
0

>  <SCORE.SYSTEM.norm>
0

>  <SCORE.heavy>
30

>  <SCORE.norm>
-0.559279

>  <RMSD>
17.476

$$$$
1uts_lig
 OpenBabel11021811413D
libRbt.so/2013.1/901 2013/11/27
 30 33  0  0  0  0  0  0  0  0999 V2000
  -10.6352   -1.1299    8.6256 N   0  0  0  0  0  0  0  0  0  0  0  0
   -9.9539   -3.1735    9.8076 C   0  0  0  0  0  0  0  0  0  0  0  0
   -9.5693   -7.7210   10.0245 C   0  0  0  0  0  0  0  0  0  0  0  0
   -9.5024   -4.0306    8.6216 C   0  0  0  0  0  0  0  0  0  0  0  0
  -10.2691   -5.2435    8.5915 O   0  0  0  0  0  0  0  0  0  0  0  0
   -9.6190   -1.7059    9.5350 C   0  0  0  0  0  0  0  0  0  0  0  0
  -10.9083   -7.1590   10.3131 N   0  0  0  0  0  0  0  0  0  0  0  0
  -11.0788   -6.9999   11.7816 C   0  0  0  0  0  0  0  0  0  0  0  0
  -10.8607   -8.3467   12.4772 C   0  0  0  0  0  0  0  0  0  0  0  0
  -10.4464   -8.1156   13.8793 N   0  0  0  0  0  0  0  0  0  0  0  0
   -9.1708   -7.3432   13.8949 C   0  0  0  0  0  0  0  0  0  0  0  0
  -10.2689   -9.4269   14.5647 C   0  0  0  0  0  0  0  0  0  0  0  0
   -8.7354   -7.1045   15.3498 C   0  0  0  0  0  0  0  0  0  0  0  0
   -9.8292   -9.1892   16.0206 C   0  0  0  0  0  0  0  0  0  0  0  0
   -8.5564   -8.4157   16.0354 N   0  0  0  0  0  0  0  0  0  0  0  0
   -8.4765   -7.0821    5.8278 C   0  0  0  0  0  0  0  0  0  0  0  0
   -5.4234  -12.2886    3.5942 N   0  0  0  0  0  0  0  0  0  0  0  0
   -8.1057   -8.2793    6.4853 C   0  0  0  0  0  0  0  0  0  0  0  0
   -8.4626   -8.4798    7.8454 C   0  0  0  0  0  0  0  0  0  0  0  0
   -9.1939   -7.4830    8.5479 C   0  0  0  0  0  0  0  0  0  0  0  0
   -9.5527   -6.2695    7.8877 C   0  0  0  0  0  0  0  0  0  0  0  0
   -9.1954   -6.0757    6.5252 C   0  0  0  0  0  0  0  0  0  0  0  0
   -6.5631  -13.0537    3.2575 C   0  0  0  0  0  0  0  0  0  0  0  0
   -7.7350  -12.4809    3.8020 C   0  0  0  0  0  0  0  0  0  0  0  0
   -8.0627  -10.3595    5.2006 C   0  0  0  0  0  0  0  0  0  0  0  0
   -7.3834   -9.2570    5.7867 C   0  0  0  0  0  0  0  0  0  0  0  0
   -5.9718   -9.1439    5.6570 C   0  0  0  0  0  0  0  0  0  0  0  0
   -5.2420  -10.1307    4.9407 C   0  0  0  0  0  0  0  0  0  0  0  0
   -5.9298  -11.2313    4.3405 C   0  0  0  0  0  0  0  0  0  0  0  0
   -7.3263  -11.3452    4.4682 C   0  0  0  0  0  0  0  0  0  0  0  0
  1  6  1  0  0  0  0
  2  4  1  0  0  0  0
  3  7  1  0  0  0  0
  4  5  1  0  0  0  0
  6  2  1  0  0  0  0
  7  8  1  0  0  0  0
  8  9  1  0  0  0  0
  9 10  1  0  0  0  0
 10 11  1  0  0  0  0
 10 12  1  0  0  0  0
 11 13  1  0  0  0  0
 13 15  1  0  0  0  0
 14 12  1  0  0  0  0
 15 14  1  0  0  0  0
 16 18  2  0  0  0  0
 16 22  1  0  0  0  0
 17 23  1  0  0  0  0
 17 29  1  0  0  0  0
 18 19  1  0  0  0  0
 18 26  1  0  0  0  0
 19 20  2  0  0  0  0
 20  3  1  0  0  0  0
 20 21  1  0  0  0  0
 21  5  1  0  0  0  0
 21 22  2  0  0  0  0
 23 24  2  0  0  0  0
 24 30  1  0  0  0  0
 25 26  2  0  0  0  0
 25 30  1  0  0  0  0
 26 27  1  0  0  0  0
 27 28  2  0  0  0  0
 28 29  1  0  0  0  0
 29 30  2  0  0  0  0
M  END
>  <CHROM.1>
163.68209061,-156.13083051,-162.07633014,-156.54577331,79.18977391,-56.58385847
155.51023639,-60.46867066,-97.06660268,-143.50257250,119.53150337,-8.81103246
-7.81746861,8.96930836,2.66220599,-1.21074109,2.18313603

>  <Name>
1uts_lig

>  <RI>
0

>  <Rbt.Current_Directory>
/home/itssahil/PROJECTS/Mol_Feturizer/New_Systems/rnas/1uts

>  <Rbt.Executable>
rbdock ($Id: //depot/dev/client3/rdock/2013.1/src/exe/rbdock.cxx#4 $)

>  <Rbt.Library>
libRbt.so (2013.1, Build901 2013/11/27)

>  <Rbt.Parameter_File>
/export/apps/rDock/src/rDock_2013.1_src/data/scripts/dock_solv.prm

>  <Rbt.Receptor>
prm/blind_docking_80.prm

>  <SCORE>
-43.6763

>  <SCORE.INTER>
-44.8105

>  <SCORE.INTER.CONST>
1

>  <SCORE.INTER.POLAR>
-3.41267

>  <SCORE.INTER.ROT>
10

>  <SCORE.INTER.SOLV>
9.80072

>  <SCORE.INTER.VDW>
-32.0317

>  <SCORE.INTER.norm>
-1.49368

>  <SCORE.INTRA>
0.342104

>  <SCORE.INTRA.DIHEDRAL>
-0.0382691

>  <SCORE.INTRA.DIHEDRAL.0>
18.0451

>  <SCORE.INTRA.POLAR>
-0.635388

>  <SCORE.INTRA.POLAR.0>
-0.196815

>  <SCORE.INTRA.REPUL>
0

>  <SCORE.INTRA.REPUL.0>
0

>  <SCORE.INTRA.SOLV>
-0.13715

>  <SCORE.INTRA.SOLV.lig_0>
-14.7906

>  <SCORE.INTRA.VDW>
2.59013

>  <SCORE.INTRA.VDW.0>
-0.411701

>  <SCORE.INTRA.norm>
0.0114035

>  <SCORE.RESTR>
0.792041

>  <SCORE.RESTR.CAVITY>
0.792041

>  <SCORE.RESTR.norm>
0.0264014

>  <SCORE.SYSTEM>
0

>  <SCORE.SYSTEM.CONST>
0

>  <SCORE.SYSTEM.DIHEDRAL>
0

>  <SCORE.SYSTEM.SOLV>
0

>  <SCORE.SYSTEM.norm>
0

>  <SCORE.heavy>
30

>  <SCORE.norm>
-1.45588

>  <RMSD>
17.494

$$$$
1uts_lig
 OpenBabel11021811413D
libRbt.so/2013.1/901 2013/11/27
 30 33  0  0  0  0  0  0  0  0999 V2000
   -9.4781   -8.4896   15.7224 N   0  0  0  0  0  0  0  0  0  0  0  0
   -9.9310   -6.7835   14.0131 C   0  0  0  0  0  0  0  0  0  0  0  0
  -10.3673   -5.4419    9.2723 C   0  0  0  0  0  0  0  0  0  0  0  0
   -9.4965   -7.5759   12.7767 C   0  0  0  0  0  0  0  0  0  0  0  0
  -10.2940   -7.1780   11.6518 O   0  0  0  0  0  0  0  0  0  0  0  0
   -9.0516   -7.1703   15.2036 C   0  0  0  0  0  0  0  0  0  0  0  0
  -11.4822   -5.3745    8.3004 N   0  0  0  0  0  0  0  0  0  0  0  0
  -12.4617   -4.3426    8.7325 C   0  0  0  0  0  0  0  0  0  0  0  0
  -11.8366   -2.9502    8.6061 C   0  0  0  0  0  0  0  0  0  0  0  0
  -11.1194   -2.6167    9.8572 N   0  0  0  0  0  0  0  0  0  0  0  0
  -11.9854   -1.7470   10.7043 C   0  0  0  0  0  0  0  0  0  0  0  0
   -9.8460   -1.9173    9.5254 C   0  0  0  0  0  0  0  0  0  0  0  0
  -11.2421   -1.3954   12.0032 C   0  0  0  0  0  0  0  0  0  0  0  0
   -9.1026   -1.5613   10.8254 C   0  0  0  0  0  0  0  0  0  0  0  0
   -9.9690   -0.6947   11.6720 N   0  0  0  0  0  0  0  0  0  0  0  0
   -8.5374   -9.4241    9.1817 C   0  0  0  0  0  0  0  0  0  0  0  0
   -6.5680  -10.6941    3.1785 N   0  0  0  0  0  0  0  0  0  0  0  0
   -8.5680   -8.6283    8.0117 C   0  0  0  0  0  0  0  0  0  0  0  0
   -9.1629   -7.3390    8.0479 C   0  0  0  0  0  0  0  0  0  0  0  0
   -9.7251   -6.8438    9.2564 C   0  0  0  0  0  0  0  0  0  0  0  0
   -9.7078   -7.6545   10.4310 C   0  0  0  0  0  0  0  0  0  0  0  0
   -9.1081   -8.9431   10.3896 C   0  0  0  0  0  0  0  0  0  0  0  0
   -7.7173  -11.4321    2.8148 C   0  0  0  0  0  0  0  0  0  0  0  0
   -8.7263  -11.3125    3.7973 C   0  0  0  0  0  0  0  0  0  0  0  0
   -8.7698   -9.9966    5.9951 C   0  0  0  0  0  0  0  0  0  0  0  0
   -8.0130   -9.1239    6.8235 C   0  0  0  0  0  0  0  0  0  0  0  0
   -6.6955   -8.7491    6.4414 C   0  0  0  0  0  0  0  0  0  0  0  0
   -6.1375   -9.2448    5.2320 C   0  0  0  0  0  0  0  0  0  0  0  0
   -6.9065  -10.1115    4.3939 C   0  0  0  0  0  0  0  0  0  0  0  0
   -8.2099  -10.4839    4.7706 C   0  0  0  0  0  0  0  0  0  0  0  0
  1  6  1  0  0  0  0
  2  4  1  0  0  0  0
  3  7  1  0  0  0  0
  4  5  1  0  0  0  0
  6  2  1  0  0  0  0
  7  8  1  0  0  0  0
  8  9  1  0  0  0  0
  9 10  1  0  0  0  0
 10 11  1  0  0  0  0
 10 12  1  0  0  0  0
 11 13  1  0  0  0  0
 13 15  1  0  0  0  0
 14 12  1  0  0  0  0
 15 14  1  0  0  0  0
 16 18  2  0  0  0  0
 16 22  1  0  0  0  0
 17 23  1  0  0  0  0
 17 29  1  0  0  0  0
 18 19  1  0  0  0  0
 18 26  1  0  0  0  0
 19 20  2  0  0  0  0
 20  3  1  0  0  0  0
 20 21  1  0  0  0  0
 21  5  1  0  0  0  0
 21 22  2  0  0  0  0
 23 24  2  0  0  0  0
 24 30  1  0  0  0  0
 25 26  2  0  0  0  0
 25 30  1  0  0  0  0
 26 27  1  0  0  0  0
 27 28  2  0  0  0  0
 28 29  1  0  0  0  0
 29 30  2  0  0  0  0
M  END
>  <CHROM.1>
-53.01163233,-178.08797099,153.64988018,166.14235915,-76.49327278,68.43908709
-88.08138477,-98.81731373,82.46723221,59.48288301,-141.55527611,-9.40308076
-6.70864126,9.07785765,-2.63089296,1.23293797,-1.30459050

>  <Name>
1uts_lig

>  <RI>
0

>  <Rbt.Current_Directory>
/home/itssahil/PROJECTS/Mol_Feturizer/New_Systems/rnas/1uts

>  <Rbt.Executable>
rbdock ($Id: //depot/dev/client3/rdock/2013.1/src/exe/rbdock.cxx#4 $)

>  <Rbt.Library>
libRbt.so (2013.1, Build901 2013/11/27)

>  <Rbt.Parameter_File>
/export/apps/rDock/src/rDock_2013.1_src/data/scripts/dock_solv.prm

>  <Rbt.Receptor>
prm/blind_docking_80.prm

>  <SCORE>
-29.8197

>  <SCORE.INTER>
-33.1968

>  <SCORE.INTER.CONST>
1

>  <SCORE.INTER.POLAR>
-2.81205

>  <SCORE.INTER.ROT>
10

>  <SCORE.INTER.SOLV>
6.43489

>  <SCORE.INTER.VDW>
-25.1694

>  <SCORE.INTER.norm>
-1.10656

>  <SCORE.INTRA>
2.69984

>  <SCORE.INTRA.DIHEDRAL>
-1.96903

>  <SCORE.INTRA.DIHEDRAL.0>
18.0451

>  <SCORE.INTRA.POLAR>
0.196815

>  <SCORE.INTRA.POLAR.0>
-0.196815

>  <SCORE.INTRA.REPUL>
0

>  <SCORE.INTRA.REPUL.0>
0

>  <SCORE.INTRA.SOLV>
-0.366829

>  <SCORE.INTRA.SOLV.lig_0>
-14.7906

>  <SCORE.INTRA.VDW>
3.1986

>  <SCORE.INTRA.VDW.0>
-0.411701

>  <SCORE.INTRA.norm>
0.0899947

>  <SCORE.RESTR>
0.677352

>  <SCORE.RESTR.CAVITY>
0.677352

>  <SCORE.RESTR.norm>
0.0225784

>  <SCORE.SYSTEM>
0

>  <SCORE.SYSTEM.CONST>
0

>  <SCORE.SYSTEM.DIHEDRAL>
0

>  <SCORE.SYSTEM.SOLV>
0

>  <SCORE.SYSTEM.norm>
0

>  <SCORE.heavy>
30

>  <SCORE.norm>
-0.993988

>  <RMSD>
17.502

$$$$
1uts_lig
 OpenBabel11021811413D
libRbt.so/2013.1/901 2013/11/27
 30 33  0  0  0  0  0  0  0  0999 V2000
  -11.8035   -1.3023    8.5238 N   0  0  0  0  0  0  0  0  0  0  0  0
  -10.7174   -2.9877    9.9441 C   0  0  0  0  0  0  0  0  0  0  0  0
  -11.2376   -6.5039    8.3585 C   0  0  0  0  0  0  0  0  0  0  0  0
   -9.7562   -3.4744    8.8558 C   0  0  0  0  0  0  0  0  0  0  0  0
  -10.4937   -3.7414    7.6538 O   0  0  0  0  0  0  0  0  0  0  0  0
  -10.9970   -1.4962    9.7500 C   0  0  0  0  0  0  0  0  0  0  0  0
  -10.5568   -7.1658    9.4946 N   0  0  0  0  0  0  0  0  0  0  0  0
   -9.4534   -6.3010    9.9900 C   0  0  0  0  0  0  0  0  0  0  0  0
   -8.7044   -7.0136   11.1199 C   0  0  0  0  0  0  0  0  0  0  0  0
   -9.6682   -7.4330   12.1621 N   0  0  0  0  0  0  0  0  0  0  0  0
   -8.9719   -7.4979   13.4792 C   0  0  0  0  0  0  0  0  0  0  0  0
  -10.2325   -8.7655   11.8059 C   0  0  0  0  0  0  0  0  0  0  0  0
   -9.9691   -7.9369   14.5636 C   0  0  0  0  0  0  0  0  0  0  0  0
  -11.2284   -9.2079   12.8930 C   0  0  0  0  0  0  0  0  0  0  0  0
  -10.5329   -9.2701   14.2086 N   0  0  0  0  0  0  0  0  0  0  0  0
   -8.3486   -5.6187    5.1829 C   0  0  0  0  0  0  0  0  0  0  0  0
   -6.1295  -11.2540    2.9022 N   0  0  0  0  0  0  0  0  0  0  0  0
   -8.6654   -6.9606    5.5029 C   0  0  0  0  0  0  0  0  0  0  0  0
   -9.6020   -7.2404    6.5333 C   0  0  0  0  0  0  0  0  0  0  0  0
  -10.2249   -6.1769    7.2425 C   0  0  0  0  0  0  0  0  0  0  0  0
   -9.8918   -4.8248    6.9293 C   0  0  0  0  0  0  0  0  0  0  0  0
   -8.9557   -4.5507    5.8947 C   0  0  0  0  0  0  0  0  0  0  0  0
   -5.5260  -11.8206    4.0478 C   0  0  0  0  0  0  0  0  0  0  0  0
   -5.8202  -11.0601    5.2023 C   0  0  0  0  0  0  0  0  0  0  0  0
   -7.2368   -8.9451    5.4927 C   0  0  0  0  0  0  0  0  0  0  0  0
   -8.0461   -8.0039    4.8003 C   0  0  0  0  0  0  0  0  0  0  0  0
   -8.2320   -8.1264    3.3958 C   0  0  0  0  0  0  0  0  0  0  0  0
   -7.6112   -9.1898    2.6863 C   0  0  0  0  0  0  0  0  0  0  0  0
   -6.8089  -10.1432    3.3879 C   0  0  0  0  0  0  0  0  0  0  0  0
   -6.6234  -10.0232    4.7774 C   0  0  0  0  0  0  0  0  0  0  0  0
  1  6  1  0  0  0  0
  2  4  1  0  0  0  0
  3  7  1  0  0  0  0
  4  5  1  0  0  0  0
  6  2  1  0  0  0  0
  7  8  1  0  0  0  0
  8  9  1  0  0  0  0
  9 10  1  0  0  0  0
 10 11  1  0  0  0  0
 10 12  1  0  0  0  0
 11 13  1  0  0  0  0
 13 15  1  0  0  0  0
 14 12  1  0  0  0  0
 15 14  1  0  0  0  0
 16 18  2  0  0  0  0
 16 22  1  0  0  0  0
 17 23  1  0  0  0  0
 17 29  1  0  0  0  0
 18 19  1  0  0  0  0
 18 26  1  0  0  0  0
 19 20  2  0  0  0  0
 20  3  1  0  0  0  0
 20 21  1  0  0  0  0
 21  5  1  0  0  0  0
 21 22  2  0  0  0  0
 23 24  2  0  0  0  0
 24 30  1  0  0  0  0
 25 26  2  0  0  0  0
 25 30  1  0  0  0  0
 26 27  1  0  0  0  0
 27 28  2  0  0  0  0
 28 29  1  0  0  0  0
 29 30  2  0  0  0  0
M  END
>  <CHROM.1>
75.24269499,-81.60901972,56.53115138,-147.54114201,69.16120133,-177.23411112
-53.66064300,-152.60937787,118.87469982,66.66244638,85.48990748,-9.15510696
-7.06108832,8.06394348,2.67781793,-1.13006155,2.18089030

>  <Name>
1uts_lig

>  <RI>
0

>  <Rbt.Current_Directory>
/home/itssahil/PROJECTS/Mol_Feturizer/New_Systems/rnas/1uts

>  <Rbt.Executable>
rbdock ($Id: //depot/dev/client3/rdock/2013.1/src/exe/rbdock.cxx#4 $)

>  <Rbt.Library>
libRbt.so (2013.1, Build901 2013/11/27)

>  <Rbt.Parameter_File>
/export/apps/rDock/src/rDock_2013.1_src/data/scripts/dock_solv.prm

>  <Rbt.Receptor>
prm/blind_docking_60.prm

>  <SCORE>
-24.8751

>  <SCORE.INTER>
-28.2771

>  <SCORE.INTER.CONST>
1

>  <SCORE.INTER.POLAR>
-1.71268

>  <SCORE.INTER.ROT>
10

>  <SCORE.INTER.SOLV>
8.98483

>  <SCORE.INTER.VDW>
-26.4041

>  <SCORE.INTER.norm>
-0.94257

>  <SCORE.INTRA>
-0.545131

>  <SCORE.INTRA.DIHEDRAL>
-0.651492

>  <SCORE.INTRA.DIHEDRAL.0>
18.0451

>  <SCORE.INTRA.POLAR>
-0.500325

>  <SCORE.INTRA.POLAR.0>
-0.196815

>  <SCORE.INTRA.REPUL>
0

>  <SCORE.INTRA.REPUL.0>
0

>  <SCORE.INTRA.SOLV>
0.322781

>  <SCORE.INTRA.SOLV.lig_0>
-14.7906

>  <SCORE.INTRA.VDW>
1.32033

>  <SCORE.INTRA.VDW.0>
-0.411701

>  <SCORE.INTRA.norm>
-0.018171

>  <SCORE.RESTR>
3.94715

>  <SCORE.RESTR.CAVITY>
3.94715

>  <SCORE.RESTR.norm>
0.131572

>  <SCORE.SYSTEM>
0

>  <SCORE.SYSTEM.CONST>
0

>  <SCORE.SYSTEM.DIHEDRAL>
0

>  <SCORE.SYSTEM.SOLV>
0

>  <SCORE.SYSTEM.norm>
0

>  <SCORE.heavy>
30

>  <SCORE.norm>
-0.82917

>  <RMSD>
17.521

$$$$
1uts_lig
 OpenBabel11021811413D
libRbt.so/2013.1/901 2013/11/27
 30 33  0  0  0  0  0  0  0  0999 V2000
  -10.0765   -1.0302    8.5455 N   0  0  0  0  0  0  0  0  0  0  0  0
  -10.9430   -3.0600    9.6253 C   0  0  0  0  0  0  0  0  0  0  0  0
   -9.3205   -7.4931   10.3931 C   0  0  0  0  0  0  0  0  0  0  0  0
  -10.4374   -3.9914    8.5198 C   0  0  0  0  0  0  0  0  0  0  0  0
  -10.6854   -5.3543    8.8951 O   0  0  0  0  0  0  0  0  0  0  0  0
  -11.3064   -1.7015    9.0232 C   0  0  0  0  0  0  0  0  0  0  0  0
  -10.4237   -8.4496   10.6382 N   0  0  0  0  0  0  0  0  0  0  0  0
  -10.3436   -8.9600   12.0325 C   0  0  0  0  0  0  0  0  0  0  0  0
  -11.4818   -8.3661   12.8675 C   0  0  0  0  0  0  0  0  0  0  0  0
  -11.2453   -6.9181   13.0635 N   0  0  0  0  0  0  0  0  0  0  0  0
  -11.6999   -6.1767   11.8521 C   0  0  0  0  0  0  0  0  0  0  0  0
   -9.7934   -6.6825   13.3030 C   0  0  0  0  0  0  0  0  0  0  0  0
  -11.4522   -4.6725   12.0504 C   0  0  0  0  0  0  0  0  0  0  0  0
   -9.5436   -5.1762   13.4980 C   0  0  0  0  0  0  0  0  0  0  0  0
  -10.0001   -4.4361   12.2888 N   0  0  0  0  0  0  0  0  0  0  0  0
   -8.7133   -6.9256    6.0891 C   0  0  0  0  0  0  0  0  0  0  0  0
   -4.6831  -11.4503    3.9050 N   0  0  0  0  0  0  0  0  0  0  0  0
   -8.0246   -7.9542    6.7754 C   0  0  0  0  0  0  0  0  0  0  0  0
   -8.2256   -8.1323    8.1702 C   0  0  0  0  0  0  0  0  0  0  0  0
   -9.1188   -7.2827    8.8788 C   0  0  0  0  0  0  0  0  0  0  0  0
   -9.7999   -6.2357    8.1880 C   0  0  0  0  0  0  0  0  0  0  0  0
   -9.5971   -6.0642    6.7911 C   0  0  0  0  0  0  0  0  0  0  0  0
   -5.5811  -12.5400    3.8442 C   0  0  0  0  0  0  0  0  0  0  0  0
   -6.7880  -12.2382    4.5150 C   0  0  0  0  0  0  0  0  0  0  0  0
   -7.5397  -10.1074    5.7227 C   0  0  0  0  0  0  0  0  0  0  0  0
   -7.1444   -8.7870    6.0703 C   0  0  0  0  0  0  0  0  0  0  0  0
   -5.8580   -8.3104    5.6956 C   0  0  0  0  0  0  0  0  0  0  0  0
   -4.9703   -9.1524    4.9728 C   0  0  0  0  0  0  0  0  0  0  0  0
   -5.3762  -10.4755    4.6126 C   0  0  0  0  0  0  0  0  0  0  0  0
   -6.6482  -10.9489    4.9829 C   0  0  0  0  0  0  0  0  0  0  0  0
  1  6  1  0  0  0  0
  2  4  1  0  0  0  0
  3  7  1  0  0  0  0
  4  5  1  0  0  0  0
  6  2  1  0  0  0  0
  7  8  1  0  0  0  0
  8  9  1  0  0  0  0
  9 10  1  0  0  0  0
 10 11  1  0  0  0  0
 10 12  1  0  0  0  0
 11 13  1  0  0  0  0
 13 15  1  0  0  0  0
 14 12  1  0  0  0  0
 15 14  1  0  0  0  0
 16 18  2  0  0  0  0
 16 22  1  0  0  0  0
 17 23  1  0  0  0  0
 17 29  1  0  0  0  0
 18 19  1  0  0  0  0
 18 26  1  0  0  0  0
 19 20  2  0  0  0  0
 20  3  1  0  0  0  0
 20 21  1  0  0  0  0
 21  5  1  0  0  0  0
 21 22  2  0  0  0  0
 23 24  2  0  0  0  0
 24 30  1  0  0  0  0
 25 26  2  0  0  0  0
 25 30  1  0  0  0  0
 26 27  1  0  0  0  0
 27 28  2  0  0  0  0
 28 29  1  0  0  0  0
 29 30  2  0  0  0  0
M  END
>  <CHROM.1>
-37.15040545,-153.29812522,162.82830594,-157.51370636,-67.32915533,108.39260430
-69.17005859,81.37952365,-103.38906775,-89.57537682,134.29097593,-8.98640119
-7.16960572,8.66577333,-3.00323658,-1.07015818,2.58385786

>  <Name>
1uts_lig

>  <RI>
0

>  <Rbt.Current_Directory>
/home/itssahil/PROJECTS/Mol_Feturizer/New_Systems/rnas/1uts

>  <Rbt.Executable>
rbdock ($Id: //depot/dev/client3/rdock/2013.1/src/exe/rbdock.cxx#4 $)

>  <Rbt.Library>
libRbt.so (2013.1, Build901 2013/11/27)

>  <Rbt.Parameter_File>
/export/apps/rDock/src/rDock_2013.1_src/data/scripts/dock_solv.prm

>  <Rbt.Receptor>
prm/blind_docking_100.prm

>  <SCORE>
-15.3456

>  <SCORE.INTER>
-29.6048

>  <SCORE.INTER.CONST>
1

>  <SCORE.INTER.POLAR>
-2.27345

>  <SCORE.INTER.ROT>
10

>  <SCORE.INTER.SOLV>
11.3756

>  <SCORE.INTER.VDW>
-26.2169

>  <SCORE.INTER.norm>
-0.986827

>  <SCORE.INTRA>
9.76659

>  <SCORE.INTRA.DIHEDRAL>
0.752065

>  <SCORE.INTRA.DIHEDRAL.0>
18.0451

>  <SCORE.INTRA.POLAR>
0.196815

>  <SCORE.INTRA.POLAR.0>
-0.196815

>  <SCORE.INTRA.REPUL>
0

>  <SCORE.INTRA.REPUL.0>
0

>  <SCORE.INTRA.SOLV>
0.441774

>  <SCORE.INTRA.SOLV.lig_0>
-14.7906

>  <SCORE.INTRA.VDW>
8.5005

>  <SCORE.INTRA.VDW.0>
-0.411701

>  <SCORE.INTRA.norm>
0.325553

>  <SCORE.RESTR>
4.4926

>  <SCORE.RESTR.CAVITY>
4.4926

>  <SCORE.RESTR.norm>
0.149753

>  <SCORE.SYSTEM>
0

>  <SCORE.SYSTEM.CONST>
0

>  <SCORE.SYSTEM.DIHEDRAL>
0

>  <SCORE.SYSTEM.SOLV>
0

>  <SCORE.SYSTEM.norm>
0

>  <SCORE.heavy>
30

>  <SCORE.norm>
-0.511521

>  <RMSD>
17.539

$$$$
1uts_lig
 OpenBabel11021811413D
libRbt.so/2013.1/901 2013/11/27
 30 33  0  0  0  0  0  0  0  0999 V2000
  -12.0551   -3.7134   10.8810 N   0  0  0  0  0  0  0  0  0  0  0  0
  -11.9296   -3.0932    8.5068 C   0  0  0  0  0  0  0  0  0  0  0  0
   -9.9292   -6.7533    9.4556 C   0  0  0  0  0  0  0  0  0  0  0  0
  -11.4262   -4.4257    7.9445 C   0  0  0  0  0  0  0  0  0  0  0  0
  -10.0063   -4.3535    7.7480 O   0  0  0  0  0  0  0  0  0  0  0  0
  -11.3374   -2.8691    9.8994 C   0  0  0  0  0  0  0  0  0  0  0  0
   -9.2032   -5.7127   10.2185 N   0  0  0  0  0  0  0  0  0  0  0  0
   -8.7195   -6.2806   11.5048 C   0  0  0  0  0  0  0  0  0  0  0  0
   -9.9137   -6.6385   12.3944 C   0  0  0  0  0  0  0  0  0  0  0  0
   -9.4577   -7.5011   13.5075 N   0  0  0  0  0  0  0  0  0  0  0  0
  -10.5134   -8.5091   13.8135 C   0  0  0  0  0  0  0  0  0  0  0  0
   -9.1810   -6.6580   14.7047 C   0  0  0  0  0  0  0  0  0  0  0  0
  -10.0449   -9.4046   14.9718 C   0  0  0  0  0  0  0  0  0  0  0  0
   -8.7153   -7.5542   15.8664 C   0  0  0  0  0  0  0  0  0  0  0  0
   -9.7691   -8.5620   16.1699 N   0  0  0  0  0  0  0  0  0  0  0  0
   -8.5842   -6.8313    5.2843 C   0  0  0  0  0  0  0  0  0  0  0  0
   -6.2650  -12.6971    3.9492 N   0  0  0  0  0  0  0  0  0  0  0  0
   -8.5140   -8.0020    6.0766 C   0  0  0  0  0  0  0  0  0  0  0  0
   -8.9510   -7.9697    7.4277 C   0  0  0  0  0  0  0  0  0  0  0  0
   -9.4618   -6.7659    7.9861 C   0  0  0  0  0  0  0  0  0  0  0  0
   -9.5166   -5.5824    7.1902 C   0  0  0  0  0  0  0  0  0  0  0  0
   -9.0805   -5.6215    5.8375 C   0  0  0  0  0  0  0  0  0  0  0  0
   -4.9169  -12.3974    4.2504 C   0  0  0  0  0  0  0  0  0  0  0  0
   -4.8076  -11.1341    4.8749 C   0  0  0  0  0  0  0  0  0  0  0  0
   -6.6080   -9.4318    5.5265 C   0  0  0  0  0  0  0  0  0  0  0  0
   -8.0078   -9.1848    5.5195 C   0  0  0  0  0  0  0  0  0  0  0  0
   -8.8937  -10.1422    4.9531 C   0  0  0  0  0  0  0  0  0  0  0  0
   -8.3802  -11.3450    4.3971 C   0  0  0  0  0  0  0  0  0  0  0  0
   -6.9726  -11.5969    4.4181 C   0  0  0  0  0  0  0  0  0  0  0  0
   -6.0946  -10.6506    4.9775 C   0  0  0  0  0  0  0  0  0  0  0  0
  1  6  1  0  0  0  0
  2  4  1  0  0  0  0
  3  7  1  0  0  0  0
  4  5  1  0  0  0  0
  6  2  1  0  0  0  0
  7  8  1  0  0  0  0
  8  9  1  0  0  0  0
  9 10  1  0  0  0  0
 10 11  1  0  0  0  0
 10 12  1  0  0  0  0
 11 13  1  0  0  0  0
 13 15  1  0  0  0  0
 14 12  1  0  0  0  0
 15 14  1  0  0  0  0
 16 18  2  0  0  0  0
 16 22  1  0  0  0  0
 17 23  1  0  0  0  0
 17 29  1  0  0  0  0
 18 19  1  0  0  0  0
 18 26  1  0  0  0  0
 19 20  2  0  0  0  0
 20  3  1  0  0  0  0
 20 21  1  0  0  0  0
 21  5  1  0  0  0  0
 21 22  2  0  0  0  0
 23 24  2  0  0  0  0
 24 30  1  0  0  0  0
 25 26  2  0  0  0  0
 25 30  1  0  0  0  0
 26 27  1  0  0  0  0
 27 28  2  0  0  0  0
 28 29  1  0  0  0  0
 29 30  2  0  0  0  0
M  END
>  <CHROM.1>
61.92484274,-64.93337562,-133.30461039,-178.60755902,-76.69501031,-65.94808195
165.90599317,-143.89939338,86.08610770,123.46869373,-71.53615165,-8.98920655
-7.61623551,8.87608280,2.30867857,-1.06248952,1.78850571

>  <Name>
1uts_lig

>  <RI>
0

>  <Rbt.Current_Directory>
/home/itssahil/PROJECTS/Mol_Feturizer/New_Systems/rnas/1uts

>  <Rbt.Executable>
rbdock ($Id: //depot/dev/client3/rdock/2013.1/src/exe/rbdock.cxx#4 $)

>  <Rbt.Library>
libRbt.so (2013.1, Build901 2013/11/27)

>  <Rbt.Parameter_File>
/export/apps/rDock/src/rDock_2013.1_src/data/scripts/dock_solv.prm

>  <Rbt.Receptor>
prm/blind_docking_80.prm

>  <SCORE>
-31.4045

>  <SCORE.INTER>
-33.4495

>  <SCORE.INTER.CONST>
1

>  <SCORE.INTER.POLAR>
-2.39449

>  <SCORE.INTER.ROT>
10

>  <SCORE.INTER.SOLV>
6.39627

>  <SCORE.INTER.VDW>
-26.7168

>  <SCORE.INTER.norm>
-1.11498

>  <SCORE.INTRA>
-0.0499916

>  <SCORE.INTRA.DIHEDRAL>
-0.843132

>  <SCORE.INTRA.DIHEDRAL.0>
18.0451

>  <SCORE.INTRA.POLAR>
0.196815

>  <SCORE.INTRA.POLAR.0>
-0.196815

>  <SCORE.INTRA.REPUL>
0

>  <SCORE.INTRA.REPUL.0>
0

>  <SCORE.INTRA.SOLV>
0.412782

>  <SCORE.INTRA.SOLV.lig_0>
-14.7906

>  <SCORE.INTRA.VDW>
-0.503988

>  <SCORE.INTRA.VDW.0>
-0.411701

>  <SCORE.INTRA.norm>
-0.00166639

>  <SCORE.RESTR>
2.09504

>  <SCORE.RESTR.CAVITY>
2.09504

>  <SCORE.RESTR.norm>
0.0698345

>  <SCORE.SYSTEM>
0

>  <SCORE.SYSTEM.CONST>
0

>  <SCORE.SYSTEM.DIHEDRAL>
0

>  <SCORE.SYSTEM.SOLV>
0

>  <SCORE.SYSTEM.norm>
0

>  <SCORE.heavy>
30

>  <SCORE.norm>
-1.04682

>  <RMSD>
17.547

$$$$
1uts_lig
 OpenBabel11021811413D
libRbt.so/2013.1/901 2013/11/27
 30 33  0  0  0  0  0  0  0  0999 V2000
  -10.3409   -6.9021   15.0295 N   0  0  0  0  0  0  0  0  0  0  0  0
   -9.6970   -6.7052   12.6665 C   0  0  0  0  0  0  0  0  0  0  0  0
   -9.9941   -5.9567    7.6202 C   0  0  0  0  0  0  0  0  0  0  0  0
   -8.8329   -7.3290   11.5667 C   0  0  0  0  0  0  0  0  0  0  0  0
   -9.0607   -6.6352   10.3312 O   0  0  0  0  0  0  0  0  0  0  0  0
   -9.3800   -7.3723   14.0062 C   0  0  0  0  0  0  0  0  0  0  0  0
   -9.3840   -4.6741    8.0383 N   0  0  0  0  0  0  0  0  0  0  0  0
  -10.4210   -3.8026    8.6516 C   0  0  0  0  0  0  0  0  0  0  0  0
   -9.8182   -2.4338    8.9811 C   0  0  0  0  0  0  0  0  0  0  0  0
  -10.0160   -2.1416   10.4186 N   0  0  0  0  0  0  0  0  0  0  0  0
  -11.3212   -1.4445   10.6043 C   0  0  0  0  0  0  0  0  0  0  0  0
   -8.8964   -1.2883   10.9080 C   0  0  0  0  0  0  0  0  0  0  0  0
  -11.5283   -1.1359   12.0960 C   0  0  0  0  0  0  0  0  0  0  0  0
   -9.1047   -0.9755   12.4008 C   0  0  0  0  0  0  0  0  0  0  0  0
  -10.4095   -0.2815   12.5857 N   0  0  0  0  0  0  0  0  0  0  0  0
   -7.2510   -9.2946    8.3604 C   0  0  0  0  0  0  0  0  0  0  0  0
   -6.1415  -12.2510    2.7154 N   0  0  0  0  0  0  0  0  0  0  0  0
   -7.6899   -9.0127    7.0447 C   0  0  0  0  0  0  0  0  0  0  0  0
   -8.5792   -7.9298    6.8119 C   0  0  0  0  0  0  0  0  0  0  0  0
   -9.0275   -7.1261    7.8959 C   0  0  0  0  0  0  0  0  0  0  0  0
   -8.5965   -7.4223    9.2239 C   0  0  0  0  0  0  0  0  0  0  0  0
   -7.7039   -8.5056    9.4505 C   0  0  0  0  0  0  0  0  0  0  0  0
   -7.4199  -12.7803    2.4268 C   0  0  0  0  0  0  0  0  0  0  0  0
   -8.3878  -12.2835    3.3290 C   0  0  0  0  0  0  0  0  0  0  0  0
   -8.1650  -10.6318    5.2749 C   0  0  0  0  0  0  0  0  0  0  0  0
   -7.2448   -9.8104    5.9812 C   0  0  0  0  0  0  0  0  0  0  0  0
   -5.8741   -9.7940    5.6028 C   0  0  0  0  0  0  0  0  0  0  0  0
   -5.4259  -10.5960    4.5186 C   0  0  0  0  0  0  0  0  0  0  0  0
   -6.3567  -11.4108    3.8012 C   0  0  0  0  0  0  0  0  0  0  0  0
   -7.7130  -11.4288    4.1745 C   0  0  0  0  0  0  0  0  0  0  0  0
  1  6  1  0  0  0  0
  2  4  1  0  0  0  0
  3  7  1  0  0  0  0
  4  5  1  0  0  0  0
  6  2  1  0  0  0  0
  7  8  1  0  0  0  0
  8  9  1  0  0  0  0
  9 10  1  0  0  0  0
 10 11  1  0  0  0  0
 10 12  1  0  0  0  0
 11 13  1  0  0  0  0
 13 15  1  0  0  0  0
 14 12  1  0  0  0  0
 15 14  1  0  0  0  0
 16 18  2  0  0  0  0
 16 22  1  0  0  0  0
 17 23  1  0  0  0  0
 17 29  1  0  0  0  0
 18 19  1  0  0  0  0
 18 26  1  0  0  0  0
 19 20  2  0  0  0  0
 20  3  1  0  0  0  0
 20 21  1  0  0  0  0
 21  5  1  0  0  0  0
 21 22  2  0  0  0  0
 23 24  2  0  0  0  0
 24 30  1  0  0  0  0
 25 26  2  0  0  0  0
 25 30  1  0  0  0  0
 26 27  1  0  0  0  0
 27 28  2  0  0  0  0
 28 29  1  0  0  0  0
 29 30  2  0  0  0  0
M  END
>  <CHROM.1>
-169.49991613,-175.78790989,-141.48371827,-162.65678009,-172.31325702,-175.43643713
-124.05332554,-89.36944487,113.53772738,-119.65869705,163.00041370,-8.73162325
-6.79827115,8.60033470,-2.98027228,1.30031954,-1.01629225

>  <Name>
1uts_lig

>  <RI>
0

>  <Rbt.Current_Directory>
/home/itssahil/PROJECTS/Mol_Feturizer/New_Systems/rnas/1uts

>  <Rbt.Executable>
rbdock ($Id: //depot/dev/client3/rdock/2013.1/src/exe/rbdock.cxx#4 $)

>  <Rbt.Library>
libRbt.so (2013.1, Build901 2013/11/27)

>  <Rbt.Parameter_File>
/export/apps/rDock/src/rDock_2013.1_src/data/scripts/dock_solv.prm

>  <Rbt.Receptor>
prm/blind_docking_80.prm

>  <SCORE>
-21.291

>  <SCORE.INTER>
-25.4712

>  <SCORE.INTER.CONST>
1

>  <SCORE.INTER.POLAR>
-1.84646

>  <SCORE.INTER.ROT>
10

>  <SCORE.INTER.SOLV>
7.19393

>  <SCORE.INTER.VDW>
-23.4906

>  <SCORE.INTER.norm>
-0.84904

>  <SCORE.INTRA>
1.93314

>  <SCORE.INTRA.DIHEDRAL>
-1.0797

>  <SCORE.INTRA.DIHEDRAL.0>
18.0451

>  <SCORE.INTRA.POLAR>
0.130418

>  <SCORE.INTRA.POLAR.0>
-0.196815

>  <SCORE.INTRA.REPUL>
0

>  <SCORE.INTRA.REPUL.0>
0

>  <SCORE.INTRA.SOLV>
-0.417496

>  <SCORE.INTRA.SOLV.lig_0>
-14.7906

>  <SCORE.INTRA.VDW>
2.23832

>  <SCORE.INTRA.VDW.0>
-0.411701

>  <SCORE.INTRA.norm>
0.0644381

>  <SCORE.RESTR>
2.24708

>  <SCORE.RESTR.CAVITY>
2.24708

>  <SCORE.RESTR.norm>
0.0749027

>  <SCORE.SYSTEM>
0

>  <SCORE.SYSTEM.CONST>
0

>  <SCORE.SYSTEM.DIHEDRAL>
0

>  <SCORE.SYSTEM.SOLV>
0

>  <SCORE.SYSTEM.norm>
0

>  <SCORE.heavy>
30

>  <SCORE.norm>
-0.709699

>  <RMSD>
17.557

$$$$
1uts_lig
 OpenBabel11021811413D
libRbt.so/2013.1/901 2013/11/27
 30 33  0  0  0  0  0  0  0  0999 V2000
   -9.7345   -7.0911   15.1603 N   0  0  0  0  0  0  0  0  0  0  0  0
  -11.0127   -8.4701   13.5787 C   0  0  0  0  0  0  0  0  0  0  0  0
  -11.5037   -6.5462    9.4751 C   0  0  0  0  0  0  0  0  0  0  0  0
  -10.6113   -8.7024   12.1192 C   0  0  0  0  0  0  0  0  0  0  0  0
   -9.8257   -7.5930   11.6591 O   0  0  0  0  0  0  0  0  0  0  0  0
   -9.7566   -8.3886   14.4480 C   0  0  0  0  0  0  0  0  0  0  0  0
  -11.8389   -5.6953    8.3108 N   0  0  0  0  0  0  0  0  0  0  0  0
  -10.8896   -4.5533    8.2352 C   0  0  0  0  0  0  0  0  0  0  0  0
  -11.5791   -3.2740    8.7184 C   0  0  0  0  0  0  0  0  0  0  0  0
  -10.9881   -2.8530   10.0085 N   0  0  0  0  0  0  0  0  0  0  0  0
  -11.9361   -1.9402   10.7099 C   0  0  0  0  0  0  0  0  0  0  0  0
   -9.6917   -2.1625    9.7563 C   0  0  0  0  0  0  0  0  0  0  0  0
  -11.3239   -1.4978   12.0488 C   0  0  0  0  0  0  0  0  0  0  0  0
   -9.0795   -1.7157   11.0960 C   0  0  0  0  0  0  0  0  0  0  0  0
  -10.0279   -0.8060   11.7970 N   0  0  0  0  0  0  0  0  0  0  0  0
   -7.7878   -8.7378    8.6980 C   0  0  0  0  0  0  0  0  0  0  0  0
   -6.9582   -9.4816    2.3724 N   0  0  0  0  0  0  0  0  0  0  0  0
   -8.5749   -8.2668    7.6200 C   0  0  0  0  0  0  0  0  0  0  0  0
   -9.7781   -7.5578    7.8789 C   0  0  0  0  0  0  0  0  0  0  0  0
  -10.1930   -7.3168    9.2174 C   0  0  0  0  0  0  0  0  0  0  0  0
   -9.4063   -7.8068   10.3028 C   0  0  0  0  0  0  0  0  0  0  0  0
   -8.2012   -8.5132   10.0376 C   0  0  0  0  0  0  0  0  0  0  0  0
   -6.9051  -10.8856    2.5263 C   0  0  0  0  0  0  0  0  0  0  0  0
   -7.2393  -11.2621    3.8470 C   0  0  0  0  0  0  0  0  0  0  0  0
   -7.9186   -9.8408    5.8675 C   0  0  0  0  0  0  0  0  0  0  0  0
   -8.1601   -8.5095    6.3030 C   0  0  0  0  0  0  0  0  0  0  0  0
   -7.9871   -7.4256    5.3988 C   0  0  0  0  0  0  0  0  0  0  0  0
   -7.5756   -7.6737    4.0614 C   0  0  0  0  0  0  0  0  0  0  0  0
   -7.3468   -9.0153    3.6225 C   0  0  0  0  0  0  0  0  0  0  0  0
   -7.5169  -10.0889    4.5157 C   0  0  0  0  0  0  0  0  0  0  0  0
  1  6  1  0  0  0  0
  2  4  1  0  0  0  0
  3  7  1  0  0  0  0
  4  5  1  0  0  0  0
  6  2  1  0  0  0  0
  7  8  1  0  0  0  0
  8  9  1  0  0  0  0
  9 10  1  0  0  0  0
 10 11  1  0  0  0  0
 10 12  1  0  0  0  0
 11 13  1  0  0  0  0
 13 15  1  0  0  0  0
 14 12  1  0  0  0  0
 15 14  1  0  0  0  0
 16 18  2  0  0  0  0
 16 22  1  0  0  0  0
 17 23  1  0  0  0  0
 17 29  1  0  0  0  0
 18 19  1  0  0  0  0
 18 26  1  0  0  0  0
 19 20  2  0  0  0  0
 20  3  1  0  0  0  0
 20 21  1  0  0  0  0
 21  5  1  0  0  0  0
 21 22  2  0  0  0  0
 23 24  2  0  0  0  0
 24 30  1  0  0  0  0
 25 26  2  0  0  0  0
 25 30  1  0  0  0  0
 26 27  1  0  0  0  0
 27 28  2  0  0  0  0
 28 29  1  0  0  0  0
 29 30  2  0  0  0  0
M  END
>  <CHROM.1>
-176.56977597,-61.84931544,-71.18925753,178.39950063,122.41420367,-104.37602253
110.89467687,-159.91913650,56.14251402,-23.84318464,92.22925405,-9.45018177
-6.66072902,8.81128140,-2.95913078,1.24860984,-0.83138962

>  <Name>
1uts_lig

>  <RI>
0

>  <Rbt.Current_Directory>
/home/itssahil/PROJECTS/Mol_Feturizer/New_Systems/rnas/1uts

>  <Rbt.Executable>
rbdock ($Id: //depot/dev/client3/rdock/2013.1/src/exe/rbdock.cxx#4 $)

>  <Rbt.Library>
libRbt.so (2013.1, Build901 2013/11/27)

>  <Rbt.Parameter_File>
/export/apps/rDock/src/rDock_2013.1_src/data/scripts/dock_solv.prm

>  <Rbt.Receptor>
prm/blind_docking_80.prm

>  <SCORE>
-21.1342

>  <SCORE.INTER>
-25.9908

>  <SCORE.INTER.CONST>
1

>  <SCORE.INTER.POLAR>
-1.43146

>  <SCORE.INTER.ROT>
10

>  <SCORE.INTER.SOLV>
5.67926

>  <SCORE.INTER.VDW>
-24.7154

>  <SCORE.INTER.norm>
-0.86636

>  <SCORE.INTRA>
4.13601

>  <SCORE.INTRA.DIHEDRAL>
5.75173

>  <SCORE.INTRA.DIHEDRAL.0>
18.0451

>  <SCORE.INTRA.POLAR>
0.196815

>  <SCORE.INTRA.POLAR.0>
-0.196815

>  <SCORE.INTRA.REPUL>
0

>  <SCORE.INTRA.REPUL.0>
0

>  <SCORE.INTRA.SOLV>
-0.330931

>  <SCORE.INTRA.SOLV.lig_0>
-14.7906

>  <SCORE.INTRA.VDW>
0.75644

>  <SCORE.INTRA.VDW.0>
-0.411701

>  <SCORE.INTRA.norm>
0.137867

>  <SCORE.RESTR>
0.720589

>  <SCORE.RESTR.CAVITY>
0.720589

>  <SCORE.RESTR.norm>
0.0240196

>  <SCORE.SYSTEM>
0

>  <SCORE.SYSTEM.CONST>
0

>  <SCORE.SYSTEM.DIHEDRAL>
0

>  <SCORE.SYSTEM.SOLV>
0

>  <SCORE.SYSTEM.norm>
0

>  <SCORE.heavy>
30

>  <SCORE.norm>
-0.704473

>  <RMSD>
17.563

$$$$
1uts_lig
 OpenBabel11021811413D
libRbt.so/2013.1/901 2013/11/27
 30 33  0  0  0  0  0  0  0  0999 V2000
  -10.8850   -9.0941   14.3066 N   0  0  0  0  0  0  0  0  0  0  0  0
   -9.9738   -7.7137   12.4896 C   0  0  0  0  0  0  0  0  0  0  0  0
   -9.9555   -5.5353    7.9490 C   0  0  0  0  0  0  0  0  0  0  0  0
  -10.3440   -6.8675   11.2681 C   0  0  0  0  0  0  0  0  0  0  0  0
   -9.1471   -6.3610   10.6593 O   0  0  0  0  0  0  0  0  0  0  0  0
  -11.2443   -8.2921   13.1153 C   0  0  0  0  0  0  0  0  0  0  0  0
   -9.4680   -4.4277    8.8021 N   0  0  0  0  0  0  0  0  0  0  0  0
   -9.8536   -3.1242    8.1994 C   0  0  0  0  0  0  0  0  0  0  0  0
  -10.9081   -2.4407    9.0749 C   0  0  0  0  0  0  0  0  0  0  0  0
  -10.3269   -2.1412   10.4028 N   0  0  0  0  0  0  0  0  0  0  0  0
  -11.3324   -1.4108   11.2270 C   0  0  0  0  0  0  0  0  0  0  0  0
   -9.0981   -1.3161   10.2297 C   0  0  0  0  0  0  0  0  0  0  0  0
  -10.7309   -1.0946   12.6059 C   0  0  0  0  0  0  0  0  0  0  0  0
   -8.4969   -0.9957   11.6101 C   0  0  0  0  0  0  0  0  0  0  0  0
   -9.5025   -0.2683   12.4334 N   0  0  0  0  0  0  0  0  0  0  0  0
   -7.6485   -9.1927    8.6674 C   0  0  0  0  0  0  0  0  0  0  0  0
   -6.3665  -12.1928    3.1545 N   0  0  0  0  0  0  0  0  0  0  0  0
   -8.0327   -8.8406    7.3514 C   0  0  0  0  0  0  0  0  0  0  0  0
   -8.7805   -7.6543    7.1257 C   0  0  0  0  0  0  0  0  0  0  0  0
   -9.1419   -6.8176    8.2171 C   0  0  0  0  0  0  0  0  0  0  0  0
   -8.7676   -7.1829    9.5450 C   0  0  0  0  0  0  0  0  0  0  0  0
   -8.0164   -8.3699    9.7646 C   0  0  0  0  0  0  0  0  0  0  0  0
   -4.9828  -12.1563    3.4403 C   0  0  0  0  0  0  0  0  0  0  0  0
   -4.7186  -11.3270    4.5539 C   0  0  0  0  0  0  0  0  0  0  0  0
   -6.3072   -9.9896    6.0545 C   0  0  0  0  0  0  0  0  0  0  0  0
   -7.6740   -9.6714    6.2806 C   0  0  0  0  0  0  0  0  0  0  0  0
   -8.6766  -10.2025    5.4233 C   0  0  0  0  0  0  0  0  0  0  0  0
   -8.3125  -11.0519    4.3437 C   0  0  0  0  0  0  0  0  0  0  0  0
   -6.9379  -11.3814    4.1273 C   0  0  0  0  0  0  0  0  0  0  0  0
   -5.9445  -10.8564    4.9741 C   0  0  0  0  0  0  0  0  0  0  0  0
  1  6  1  0  0  0  0
  2  4  1  0  0  0  0
  3  7  1  0  0  0  0
  4  5  1  0  0  0  0
  6  2  1  0  0  0  0
  7  8  1  0  0  0  0
  8  9  1  0  0  0  0
  9 10  1  0  0  0  0
 10 11  1  0  0  0  0
 10 12  1  0  0  0  0
 11 13  1  0  0  0  0
 13 15  1  0  0  0  0
 14 12  1  0  0  0  0
 15 14  1  0  0  0  0
 16 18  2  0  0  0  0
 16 22  1  0  0  0  0
 17 23  1  0  0  0  0
 17 29  1  0  0  0  0
 18 19  1  0  0  0  0
 18 26  1  0  0  0  0
 19 20  2  0  0  0  0
 20  3  1  0  0  0  0
 20 21  1  0  0  0  0
 21  5  1  0  0  0  0
 21 22  2  0  0  0  0
 23 24  2  0  0  0  0
 24 30  1  0  0  0  0
 25 26  2  0  0  0  0
 25 30  1  0  0  0  0
 26 27  1  0  0  0  0
 27 28  2  0  0  0  0
 28 29  1  0  0  0  0
 29 30  2  0  0  0  0
M  END
>  <CHROM.1>
118.34152929,-178.21094410,158.10180082,98.02469267,-179.22247622,111.35125410
63.16524527,176.99431552,-56.51482989,-140.23698497,96.41001129,-8.79934692
-6.78004250,8.74877706,2.48775992,1.16768556,-0.21378478

>  <Name>
1uts_lig

>  <RI>
0

>  <Rbt.Current_Directory>
/home/itssahil/PROJECTS/Mol_Feturizer/New_Systems/rnas/1uts

>  <Rbt.Executable>
rbdock ($Id: //depot/dev/client3/rdock/2013.1/src/exe/rbdock.cxx#4 $)

>  <Rbt.Library>
libRbt.so (2013.1, Build901 2013/11/27)

>  <Rbt.Parameter_File>
/export/apps/rDock/src/rDock_2013.1_src/data/scripts/dock_solv.prm

>  <Rbt.Receptor>
prm/blind_docking_60.prm

>  <SCORE>
-25.195

>  <SCORE.INTER>
-35.344

>  <SCORE.INTER.CONST>
1

>  <SCORE.INTER.POLAR>
-3.25508

>  <SCORE.INTER.ROT>
10

>  <SCORE.INTER.SOLV>
10.1278

>  <SCORE.INTER.VDW>
-26.355

>  <SCORE.INTER.norm>
-1.17813

>  <SCORE.INTRA>
4.19316

>  <SCORE.INTRA.DIHEDRAL>
4.00989

>  <SCORE.INTRA.DIHEDRAL.0>
18.0451

>  <SCORE.INTRA.POLAR>
0.0834313

>  <SCORE.INTRA.POLAR.0>
-0.196815

>  <SCORE.INTRA.REPUL>
0

>  <SCORE.INTRA.REPUL.0>
0

>  <SCORE.INTRA.SOLV>
-0.0567787

>  <SCORE.INTRA.SOLV.lig_0>
-14.7906

>  <SCORE.INTRA.VDW>
1.93294

>  <SCORE.INTRA.VDW.0>
-0.411701

>  <SCORE.INTRA.norm>
0.139772

>  <SCORE.RESTR>
5.95587

>  <SCORE.RESTR.CAVITY>
5.95587

>  <SCORE.RESTR.norm>
0.198529

>  <SCORE.SYSTEM>
0

>  <SCORE.SYSTEM.CONST>
0

>  <SCORE.SYSTEM.DIHEDRAL>
0

>  <SCORE.SYSTEM.SOLV>
0

>  <SCORE.SYSTEM.norm>
0

>  <SCORE.heavy>
30

>  <SCORE.norm>
-0.839832

>  <RMSD>
17.566

$$$$
1uts_lig
 OpenBabel11021811413D
libRbt.so/2013.1/901 2013/11/27
 30 33  0  0  0  0  0  0  0  0999 V2000
  -10.9337   -6.7572   13.5044 N   0  0  0  0  0  0  0  0  0  0  0  0
  -10.9860   -9.2109   13.3869 C   0  0  0  0  0  0  0  0  0  0  0  0
  -12.3565   -6.9913    8.9745 C   0  0  0  0  0  0  0  0  0  0  0  0
  -10.4473   -9.2970   11.9559 C   0  0  0  0  0  0  0  0  0  0  0  0
  -10.8340   -8.1208   11.2300 O   0  0  0  0  0  0  0  0  0  0  0  0
  -10.3765   -7.9971   14.0907 C   0  0  0  0  0  0  0  0  0  0  0  0
  -12.3362   -5.5323    8.7234 N   0  0  0  0  0  0  0  0  0  0  0  0
  -11.5884   -4.8472    9.8109 C   0  0  0  0  0  0  0  0  0  0  0  0
  -11.2579   -3.4129    9.3881 C   0  0  0  0  0  0  0  0  0  0  0  0
  -10.6297   -2.6976   10.5215 N   0  0  0  0  0  0  0  0  0  0  0  0
  -10.4198   -1.2695   10.1469 C   0  0  0  0  0  0  0  0  0  0  0  0
   -9.3291   -3.3446   10.8543 C   0  0  0  0  0  0  0  0  0  0  0  0
   -9.7638   -0.5241   11.3205 C   0  0  0  0  0  0  0  0  0  0  0  0
   -8.6695   -2.5967   12.0270 C   0  0  0  0  0  0  0  0  0  0  0  0
   -8.4624   -1.1700   11.6530 N   0  0  0  0  0  0  0  0  0  0  0  0
   -8.3431   -8.6748    8.4515 C   0  0  0  0  0  0  0  0  0  0  0  0
   -6.7787   -8.5176    2.2057 N   0  0  0  0  0  0  0  0  0  0  0  0
   -9.0486   -8.1580    7.3386 C   0  0  0  0  0  0  0  0  0  0  0  0
  -10.3489   -7.6144    7.5150 C   0  0  0  0  0  0  0  0  0  0  0  0
  -10.9431   -7.5847    8.8065 C   0  0  0  0  0  0  0  0  0  0  0  0
  -10.2366   -8.1211    9.9246 C   0  0  0  0  0  0  0  0  0  0  0  0
   -8.9340   -8.6612    9.7425 C   0  0  0  0  0  0  0  0  0  0  0  0
   -7.0584   -9.8856    1.9863 C   0  0  0  0  0  0  0  0  0  0  0  0
   -7.7065  -10.4547    3.1059 C   0  0  0  0  0  0  0  0  0  0  0  0
   -8.4301   -9.4057    5.3285 C   0  0  0  0  0  0  0  0  0  0  0  0
   -8.4569   -8.1921    6.0680 C   0  0  0  0  0  0  0  0  0  0  0  0
   -7.8891   -7.0118    5.5141 C   0  0  0  0  0  0  0  0  0  0  0  0
   -7.2979   -7.0456    4.2223 C   0  0  0  0  0  0  0  0  0  0  0  0
   -7.2848   -8.2648    3.4751 C   0  0  0  0  0  0  0  0  0  0  0  0
   -7.8455   -9.4336    4.0217 C   0  0  0  0  0  0  0  0  0  0  0  0
  1  6  1  0  0  0  0
  2  4  1  0  0  0  0
  3  7  1  0  0  0  0
  4  5  1  0  0  0  0
  6  2  1  0  0  0  0
  7  8  1  0  0  0  0
  8  9  1  0  0  0  0
  9 10  1  0  0  0  0
 10 11  1  0  0  0  0
 10 12  1  0  0  0  0
 11 13  1  0  0  0  0
 13 15  1  0  0  0  0
 14 12  1  0  0  0  0
 15 14  1  0  0  0  0
 16 18  2  0  0  0  0
 16 22  1  0  0  0  0
 17 23  1  0  0  0  0
 17 29  1  0  0  0  0
 18 19  1  0  0  0  0
 18 26  1  0  0  0  0
 19 20  2  0  0  0  0
 20  3  1  0  0  0  0
 20 21  1  0  0  0  0
 21  5  1  0  0  0  0
 21 22  2  0  0  0  0
 23 24  2  0  0  0  0
 24 30  1  0  0  0  0
 25 26  2  0  0  0  0
 25 30  1  0  0  0  0
 26 27  1  0  0  0  0
 27 28  2  0  0  0  0
 28 29  1  0  0  0  0
 29 30  2  0  0  0  0
M  END
>  <CHROM.1>
80.85298253,-61.72333980,-68.65611501,174.67343991,70.15713902,165.74243098
174.61778845,-175.03268109,77.82684383,-67.72505706,144.90664810,-9.56162116
-6.57238881,8.67279125,2.44672956,1.20293986,0.17346684

>  <Name>
1uts_lig

>  <RI>
0

>  <Rbt.Current_Directory>
/home/itssahil/PROJECTS/Mol_Feturizer/New_Systems/rnas/1uts

>  <Rbt.Executable>
rbdock ($Id: //depot/dev/client3/rdock/2013.1/src/exe/rbdock.cxx#4 $)

>  <Rbt.Library>
libRbt.so (2013.1, Build901 2013/11/27)

>  <Rbt.Parameter_File>
/export/apps/rDock/src/rDock_2013.1_src/data/scripts/dock_solv.prm

>  <Rbt.Receptor>
prm/blind_docking_60.prm

>  <SCORE>
-4.11454

>  <SCORE.INTER>
-6.80177

>  <SCORE.INTER.CONST>
1

>  <SCORE.INTER.POLAR>
0

>  <SCORE.INTER.ROT>
10

>  <SCORE.INTER.SOLV>
7.88776

>  <SCORE.INTER.VDW>
-17.4304

>  <SCORE.INTER.norm>
-0.226726

>  <SCORE.INTRA>
-4.16123

>  <SCORE.INTRA.DIHEDRAL>
-8.84837

>  <SCORE.INTRA.DIHEDRAL.0>
18.0451

>  <SCORE.INTRA.POLAR>
-0.599808

>  <SCORE.INTRA.POLAR.0>
-0.196815

>  <SCORE.INTRA.REPUL>
0

>  <SCORE.INTRA.REPUL.0>
0

>  <SCORE.INTRA.SOLV>
0.0315275

>  <SCORE.INTRA.SOLV.lig_0>
-14.7906

>  <SCORE.INTRA.VDW>
2.28654

>  <SCORE.INTRA.VDW.0>
-0.411701

>  <SCORE.INTRA.norm>
-0.138708

>  <SCORE.RESTR>
6.84846

>  <SCORE.RESTR.CAVITY>
6.84846

>  <SCORE.RESTR.norm>
0.228282

>  <SCORE.SYSTEM>
0

>  <SCORE.SYSTEM.CONST>
0

>  <SCORE.SYSTEM.DIHEDRAL>
0

>  <SCORE.SYSTEM.SOLV>
0

>  <SCORE.SYSTEM.norm>
0

>  <SCORE.heavy>
30

>  <SCORE.norm>
-0.137151

>  <RMSD>
17.580

$$$$
1uts_lig
 OpenBabel11021811413D
libRbt.so/2013.1/901 2013/11/27
 30 33  0  0  0  0  0  0  0  0999 V2000
   -9.8657   -9.6475   16.0675 N   0  0  0  0  0  0  0  0  0  0  0  0
  -10.6290   -8.6441   13.9586 C   0  0  0  0  0  0  0  0  0  0  0  0
  -12.2497   -6.0770    9.7122 C   0  0  0  0  0  0  0  0  0  0  0  0
  -10.1105   -7.9555   12.6928 C   0  0  0  0  0  0  0  0  0  0  0  0
  -11.1422   -7.9540   11.6950 O   0  0  0  0  0  0  0  0  0  0  0  0
   -9.5292   -8.6551   15.0219 C   0  0  0  0  0  0  0  0  0  0  0  0
  -12.9139   -5.6391    8.4636 N   0  0  0  0  0  0  0  0  0  0  0  0
  -12.0847   -4.6037    7.7917 C   0  0  0  0  0  0  0  0  0  0  0  0
  -12.2370   -3.2652    8.5202 C   0  0  0  0  0  0  0  0  0  0  0  0
  -10.9464   -2.8933    9.1422 N   0  0  0  0  0  0  0  0  0  0  0  0
  -10.8563   -3.5110   10.4965 C   0  0  0  0  0  0  0  0  0  0  0  0
  -10.8548   -1.4091    9.2404 C   0  0  0  0  0  0  0  0  0  0  0  0
   -9.5185   -3.1237   11.1472 C   0  0  0  0  0  0  0  0  0  0  0  0
   -9.5171   -1.0201    9.8954 C   0  0  0  0  0  0  0  0  0  0  0  0
   -9.4268   -1.6394   11.2469 N   0  0  0  0  0  0  0  0  0  0  0  0
   -8.9144   -8.7567    8.7583 C   0  0  0  0  0  0  0  0  0  0  0  0
   -7.2115   -8.1275    2.6094 N   0  0  0  0  0  0  0  0  0  0  0  0
   -9.4293   -7.8822    7.7716 C   0  0  0  0  0  0  0  0  0  0  0  0
  -10.5105   -7.0168    8.0872 C   0  0  0  0  0  0  0  0  0  0  0  0
  -11.0754   -7.0238    9.3921 C   0  0  0  0  0  0  0  0  0  0  0  0
  -10.5654   -7.9180   10.3808 C   0  0  0  0  0  0  0  0  0  0  0  0
   -9.4809   -8.7798   10.0600 C   0  0  0  0  0  0  0  0  0  0  0  0
   -7.0737   -9.5328    2.5448 C   0  0  0  0  0  0  0  0  0  0  0  0
   -7.5108  -10.1389    3.7444 C   0  0  0  0  0  0  0  0  0  0  0  0
   -8.4895   -9.1085    5.8762 C   0  0  0  0  0  0  0  0  0  0  0  0
   -8.8682   -7.8820    6.4868 C   0  0  0  0  0  0  0  0  0  0  0  0
   -8.6834   -6.6564    5.7897 C   0  0  0  0  0  0  0  0  0  0  0  0
   -8.1231   -6.6584    4.4837 C   0  0  0  0  0  0  0  0  0  0  0  0
   -7.7559   -7.8951    3.8666 C   0  0  0  0  0  0  0  0  0  0  0  0
   -7.9374   -9.1086    4.5550 C   0  0  0  0  0  0  0  0  0  0  0  0
  1  6  1  0  0  0  0
  2  4  1  0  0  0  0
  3  7  1  0  0  0  0
  4  5  1  0  0  0  0
  6  2  1  0  0  0  0
  7  8  1  0  0  0  0
  8  9  1  0  0  0  0
  9 10  1  0  0  0  0
 10 11  1  0  0  0  0
 10 12  1  0  0  0  0
 11 13  1  0  0  0  0
 13 15  1  0  0  0  0
 14 12  1  0  0  0  0
 15 14  1  0  0  0  0
 16 18  2  0  0  0  0
 16 22  1  0  0  0  0
 17 23  1  0  0  0  0
 17 29  1  0  0  0  0
 18 19  1  0  0  0  0
 18 26  1  0  0  0  0
 19 20  2  0  0  0  0
 20  3  1  0  0  0  0
 20 21  1  0  0  0  0
 21  5  1  0  0  0  0
 21 22  2  0  0  0  0
 23 24  2  0  0  0  0
 24 30  1  0  0  0  0
 25 26  2  0  0  0  0
 25 30  1  0  0  0  0
 26 27  1  0  0  0  0
 27 28  2  0  0  0  0
 28 29  1  0  0  0  0
 29 30  2  0  0  0  0
M  END
>  <CHROM.1>
71.91216008,179.66359708,-76.35312158,-153.06652777,-163.23873864,-76.16073313
113.85098485,-87.04184561,39.96420480,20.02071055,-134.13487722,-9.83949016
-6.53944833,8.81212751,-2.63147939,1.24132191,-0.82751869

>  <Name>
1uts_lig

>  <RI>
0

>  <Rbt.Current_Directory>
/home/itssahil/PROJECTS/Mol_Feturizer/New_Systems/rnas/1uts

>  <Rbt.Executable>
rbdock ($Id: //depot/dev/client3/rdock/2013.1/src/exe/rbdock.cxx#4 $)

>  <Rbt.Library>
libRbt.so (2013.1, Build901 2013/11/27)

>  <Rbt.Parameter_File>
/export/apps/rDock/src/rDock_2013.1_src/data/scripts/dock_solv.prm

>  <Rbt.Receptor>
prm/blind_docking_60.prm

>  <SCORE>
-17.5922

>  <SCORE.INTER>
-28.3794

>  <SCORE.INTER.CONST>
1

>  <SCORE.INTER.POLAR>
-1.79936

>  <SCORE.INTER.ROT>
10

>  <SCORE.INTER.SOLV>
9.03706

>  <SCORE.INTER.VDW>
-26.2008

>  <SCORE.INTER.norm>
-0.945981

>  <SCORE.INTRA>
3.81891

>  <SCORE.INTRA.DIHEDRAL>
-0.351583

>  <SCORE.INTRA.DIHEDRAL.0>
18.0451

>  <SCORE.INTRA.POLAR>
0.196815

>  <SCORE.INTRA.POLAR.0>
-0.196815

>  <SCORE.INTRA.REPUL>
0

>  <SCORE.INTRA.REPUL.0>
0

>  <SCORE.INTRA.SOLV>
-0.495396

>  <SCORE.INTRA.SOLV.lig_0>
-14.7906

>  <SCORE.INTRA.VDW>
3.57322

>  <SCORE.INTRA.VDW.0>
-0.411701

>  <SCORE.INTRA.norm>
0.127297

>  <SCORE.RESTR>
6.96835

>  <SCORE.RESTR.CAVITY>
6.96835

>  <SCORE.RESTR.norm>
0.232278

>  <SCORE.SYSTEM>
0

>  <SCORE.SYSTEM.CONST>
0

>  <SCORE.SYSTEM.DIHEDRAL>
0

>  <SCORE.SYSTEM.SOLV>
0

>  <SCORE.SYSTEM.norm>
0

>  <SCORE.heavy>
30

>  <SCORE.norm>
-0.586406

>  <RMSD>
17.610

$$$$
1uts_lig
 OpenBabel11021811413D
libRbt.so/2013.1/901 2013/11/27
 30 33  0  0  0  0  0  0  0  0999 V2000
  -12.0807   -1.2210    9.4278 N   0  0  0  0  0  0  0  0  0  0  0  0
  -10.1979   -2.7956    9.5413 C   0  0  0  0  0  0  0  0  0  0  0  0
  -10.2224   -7.0713    8.9835 C   0  0  0  0  0  0  0  0  0  0  0  0
   -9.4600   -3.8511    8.7127 C   0  0  0  0  0  0  0  0  0  0  0  0
  -10.3570   -4.4043    7.7385 O   0  0  0  0  0  0  0  0  0  0  0  0
  -11.5567   -2.5021    8.9027 C   0  0  0  0  0  0  0  0  0  0  0  0
   -9.1523   -7.0791   10.0067 N   0  0  0  0  0  0  0  0  0  0  0  0
   -9.5404   -7.9722   11.1304 C   0  0  0  0  0  0  0  0  0  0  0  0
  -10.8498   -7.4804   11.7543 C   0  0  0  0  0  0  0  0  0  0  0  0
  -10.8346   -7.7519   13.2093 N   0  0  0  0  0  0  0  0  0  0  0  0
   -9.7351   -6.9699   13.8446 C   0  0  0  0  0  0  0  0  0  0  0  0
  -10.6343   -9.2108   13.4378 C   0  0  0  0  0  0  0  0  0  0  0  0
   -9.7138   -7.2523   15.3556 C   0  0  0  0  0  0  0  0  0  0  0  0
  -10.6090   -9.4943   14.9505 C   0  0  0  0  0  0  0  0  0  0  0  0
   -9.5123   -8.7112   15.5847 N   0  0  0  0  0  0  0  0  0  0  0  0
   -8.5216   -6.2724    5.0232 C   0  0  0  0  0  0  0  0  0  0  0  0
   -5.7126  -11.7361    2.9695 N   0  0  0  0  0  0  0  0  0  0  0  0
   -8.4200   -7.5636    5.5940 C   0  0  0  0  0  0  0  0  0  0  0  0
   -8.9729   -7.8155    6.8778 C   0  0  0  0  0  0  0  0  0  0  0  0
   -9.6309   -6.7757    7.5904 C   0  0  0  0  0  0  0  0  0  0  0  0
   -9.7179   -5.4702    7.0200 C   0  0  0  0  0  0  0  0  0  0  0  0
   -9.1653   -5.2247    5.7331 C   0  0  0  0  0  0  0  0  0  0  0  0
   -4.8928  -12.1222    4.0542 C   0  0  0  0  0  0  0  0  0  0  0  0
   -5.1276  -11.3028    5.1816 C   0  0  0  0  0  0  0  0  0  0  0  0
   -6.7578   -9.3556    5.5207 C   0  0  0  0  0  0  0  0  0  0  0  0
   -7.7685   -8.5834    4.8861 C   0  0  0  0  0  0  0  0  0  0  0  0
   -8.1223   -8.8518    3.5352 C   0  0  0  0  0  0  0  0  0  0  0  0
   -7.4676   -9.8919    2.8216 C   0  0  0  0  0  0  0  0  0  0  0  0
   -6.4609  -10.6761    3.4671 C   0  0  0  0  0  0  0  0  0  0  0  0
   -6.1092  -10.4116    4.8035 C   0  0  0  0  0  0  0  0  0  0  0  0
  1  6  1  0  0  0  0
  2  4  1  0  0  0  0
  3  7  1  0  0  0  0
  4  5  1  0  0  0  0
  6  2  1  0  0  0  0
  7  8  1  0  0  0  0
  8  9  1  0  0  0  0
  9 10  1  0  0  0  0
 10 11  1  0  0  0  0
 10 12  1  0  0  0  0
 11 13  1  0  0  0  0
 13 15  1  0  0  0  0
 14 12  1  0  0  0  0
 15 14  1  0  0  0  0
 16 18  2  0  0  0  0
 16 22  1  0  0  0  0
 17 23  1  0  0  0  0
 17 29  1  0  0  0  0
 18 19  1  0  0  0  0
 18 26  1  0  0  0  0
 19 20  2  0  0  0  0
 20  3  1  0  0  0  0
 20 21  1  0  0  0  0
 21  5  1  0  0  0  0
 21 22  2  0  0  0  0
 23 24  2  0  0  0  0
 24 30  1  0  0  0  0
 25 26  2  0  0  0  0
 25 30  1  0  0  0  0
 26 27  1  0  0  0  0
 27 28  2  0  0  0  0
 28 29  1  0  0  0  0
 29 30  2  0  0  0  0
M  END
>  <CHROM.1>
-45.11491491,-10.01303991,-152.18566500,-175.46565914,-162.51715536,-59.33664037
-146.23986383,63.42218671,129.57244474,78.52530604,80.54374153,-8.99594911
-7.43116320,8.45167015,2.51905669,-1.09065374,2.08083471

>  <Name>
1uts_lig

>  <RI>
0

>  <Rbt.Current_Directory>
/home/itssahil/PROJECTS/Mol_Feturizer/New_Systems/rnas/1uts

>  <Rbt.Executable>
rbdock ($Id: //depot/dev/client3/rdock/2013.1/src/exe/rbdock.cxx#4 $)

>  <Rbt.Library>
libRbt.so (2013.1, Build901 2013/11/27)

>  <Rbt.Parameter_File>
/export/apps/rDock/src/rDock_2013.1_src/data/scripts/dock_solv.prm

>  <Rbt.Receptor>
prm/blind_docking_60.prm

>  <SCORE>
-18.532

>  <SCORE.INTER>
-33.6352

>  <SCORE.INTER.CONST>
1

>  <SCORE.INTER.POLAR>
-1.72883

>  <SCORE.INTER.ROT>
10

>  <SCORE.INTER.SOLV>
8.59583

>  <SCORE.INTER.VDW>
-29.7926

>  <SCORE.INTER.norm>
-1.12117

>  <SCORE.INTRA>
8.1765

>  <SCORE.INTRA.DIHEDRAL>
1.96964

>  <SCORE.INTRA.DIHEDRAL.0>
18.0451

>  <SCORE.INTRA.POLAR>
0.196815

>  <SCORE.INTRA.POLAR.0>
-0.196815

>  <SCORE.INTRA.REPUL>
0

>  <SCORE.INTRA.REPUL.0>
0

>  <SCORE.INTRA.SOLV>
-0.330111

>  <SCORE.INTRA.SOLV.lig_0>
-14.7906

>  <SCORE.INTRA.VDW>
6.68756

>  <SCORE.INTRA.VDW.0>
-0.411701

>  <SCORE.INTRA.norm>
0.27255

>  <SCORE.RESTR>
6.9267

>  <SCORE.RESTR.CAVITY>
6.9267

>  <SCORE.RESTR.norm>
0.23089

>  <SCORE.SYSTEM>
0

>  <SCORE.SYSTEM.CONST>
0

>  <SCORE.SYSTEM.DIHEDRAL>
0

>  <SCORE.SYSTEM.SOLV>
0

>  <SCORE.SYSTEM.norm>
0

>  <SCORE.heavy>
30

>  <SCORE.norm>
-0.617734

>  <RMSD>
17.616

$$$$
1uts_lig
 OpenBabel11021811413D
libRbt.so/2013.1/901 2013/11/27
 30 33  0  0  0  0  0  0  0  0999 V2000
  -10.1179   -9.1115   16.0808 N   0  0  0  0  0  0  0  0  0  0  0  0
  -10.5998   -8.3157   13.8066 C   0  0  0  0  0  0  0  0  0  0  0  0
  -11.4015   -6.0461    9.5596 C   0  0  0  0  0  0  0  0  0  0  0  0
   -9.9717   -7.9679   12.4539 C   0  0  0  0  0  0  0  0  0  0  0  0
  -10.8958   -8.2879   11.4035 O   0  0  0  0  0  0  0  0  0  0  0  0
   -9.5101   -8.7907   14.7696 C   0  0  0  0  0  0  0  0  0  0  0  0
  -12.0226   -5.5015    8.3309 N   0  0  0  0  0  0  0  0  0  0  0  0
  -11.0135   -4.7276    7.5604 C   0  0  0  0  0  0  0  0  0  0  0  0
   -9.9893   -4.1134    8.5192 C   0  0  0  0  0  0  0  0  0  0  0  0
  -10.4874   -2.8052    9.0001 N   0  0  0  0  0  0  0  0  0  0  0  0
   -9.4679   -2.1898    9.8977 C   0  0  0  0  0  0  0  0  0  0  0  0
  -11.7714   -3.0034    9.7303 C   0  0  0  0  0  0  0  0  0  0  0  0
   -9.9835   -0.8324   10.4023 C   0  0  0  0  0  0  0  0  0  0  0  0
  -12.2868   -1.6451   10.2393 C   0  0  0  0  0  0  0  0  0  0  0  0
  -11.2670   -1.0301   11.1338 N   0  0  0  0  0  0  0  0  0  0  0  0
   -8.6939   -9.3344    8.5246 C   0  0  0  0  0  0  0  0  0  0  0  0
   -6.5676   -8.3017    2.4967 N   0  0  0  0  0  0  0  0  0  0  0  0
   -8.9238   -8.2850    7.6031 C   0  0  0  0  0  0  0  0  0  0  0  0
   -9.8027   -7.2227    7.9446 C   0  0  0  0  0  0  0  0  0  0  0  0
  -10.4501   -7.2084    9.2106 C   0  0  0  0  0  0  0  0  0  0  0  0
  -10.2296   -8.2760   10.1319 C   0  0  0  0  0  0  0  0  0  0  0  0
   -9.3463   -9.3351    9.7857 C   0  0  0  0  0  0  0  0  0  0  0  0
   -7.7637   -8.1919    1.7517 C   0  0  0  0  0  0  0  0  0  0  0  0
   -8.8895   -8.1599    2.6056 C   0  0  0  0  0  0  0  0  0  0  0  0
   -9.0499   -8.2351    5.1615 C   0  0  0  0  0  0  0  0  0  0  0  0
   -8.2831   -8.3066    6.3562 C   0  0  0  0  0  0  0  0  0  0  0  0
   -6.8654   -8.3931    6.2846 C   0  0  0  0  0  0  0  0  0  0  0  0
   -6.2166   -8.4056    5.0203 C   0  0  0  0  0  0  0  0  0  0  0  0
   -6.9899   -8.3196    3.8205 C   0  0  0  0  0  0  0  0  0  0  0  0
   -8.3926   -8.2346    3.8894 C   0  0  0  0  0  0  0  0  0  0  0  0
  1  6  1  0  0  0  0
  2  4  1  0  0  0  0
  3  7  1  0  0  0  0
  4  5  1  0  0  0  0
  6  2  1  0  0  0  0
  7  8  1  0  0  0  0
  8  9  1  0  0  0  0
  9 10  1  0  0  0  0
 10 11  1  0  0  0  0
 10 12  1  0  0  0  0
 11 13  1  0  0  0  0
 13 15  1  0  0  0  0
 14 12  1  0  0  0  0
 15 14  1  0  0  0  0
 16 18  2  0  0  0  0
 16 22  1  0  0  0  0
 17 23  1  0  0  0  0
 17 29  1  0  0  0  0
 18 19  1  0  0  0  0
 18 26  1  0  0  0  0
 19 20  2  0  0  0  0
 20  3  1  0  0  0  0
 20 21  1  0  0  0  0
 21  5  1  0  0  0  0
 21 22  2  0  0  0  0
 23 24  2  0  0  0  0
 24 30  1  0  0  0  0
 25 26  2  0  0  0  0
 25 30  1  0  0  0  0
 26 27  1  0  0  0  0
 27 28  2  0  0  0  0
 28 29  1  0  0  0  0
 29 30  2  0  0  0  0
M  END
>  <CHROM.1>
-173.21844474,146.24787210,-72.80295957,-166.27597025,179.36652753,-30.11524632
-86.81966800,-178.14432973,124.38450286,28.99064438,-106.46541755,-9.64767090
-6.52787798,8.61761066,-2.63950800,1.19357425,-0.86769287

>  <Name>
1uts_lig

>  <RI>
0

>  <Rbt.Current_Directory>
/home/itssahil/PROJECTS/Mol_Feturizer/New_Systems/rnas/1uts

>  <Rbt.Executable>
rbdock ($Id: //depot/dev/client3/rdock/2013.1/src/exe/rbdock.cxx#4 $)

>  <Rbt.Library>
libRbt.so (2013.1, Build901 2013/11/27)

>  <Rbt.Parameter_File>
/export/apps/rDock/src/rDock_2013.1_src/data/scripts/dock_solv.prm

>  <Rbt.Receptor>
prm/blind_docking_60.prm

>  <SCORE>
-18.9592

>  <SCORE.INTER>
-36.0694

>  <SCORE.INTER.CONST>
1

>  <SCORE.INTER.POLAR>
-3.01672

>  <SCORE.INTER.ROT>
10

>  <SCORE.INTER.SOLV>
10.8941

>  <SCORE.INTER.VDW>
-27.8886

>  <SCORE.INTER.norm>
-1.20231

>  <SCORE.INTRA>
11.6319

>  <SCORE.INTRA.DIHEDRAL>
-0.849604

>  <SCORE.INTRA.DIHEDRAL.0>
18.0451

>  <SCORE.INTRA.POLAR>
0.196815

>  <SCORE.INTRA.POLAR.0>
-0.196815

>  <SCORE.INTRA.REPUL>
0

>  <SCORE.INTRA.REPUL.0>
0

>  <SCORE.INTRA.SOLV>
-0.385079

>  <SCORE.INTRA.SOLV.lig_0>
-14.7906

>  <SCORE.INTRA.VDW>
11.5801

>  <SCORE.INTRA.VDW.0>
-0.411701

>  <SCORE.INTRA.norm>
0.38773

>  <SCORE.RESTR>
5.47832

>  <SCORE.RESTR.CAVITY>
5.47832

>  <SCORE.RESTR.norm>
0.182611

>  <SCORE.SYSTEM>
0

>  <SCORE.SYSTEM.CONST>
0

>  <SCORE.SYSTEM.DIHEDRAL>
0

>  <SCORE.SYSTEM.SOLV>
0

>  <SCORE.SYSTEM.norm>
0

>  <SCORE.heavy>
30

>  <SCORE.norm>
-0.631972

>  <RMSD>
17.638

$$$$
1uts_lig
 OpenBabel11021811413D
libRbt.so/2013.1/901 2013/11/27
 30 33  0  0  0  0  0  0  0  0999 V2000
  -10.7103   -1.3072    8.5936 N   0  0  0  0  0  0  0  0  0  0  0  0
  -12.2038   -3.1734    9.1625 C   0  0  0  0  0  0  0  0  0  0  0  0
   -9.3963   -4.3027    8.2994 C   0  0  0  0  0  0  0  0  0  0  0  0
  -12.0496   -4.1603    8.0017 C   0  0  0  0  0  0  0  0  0  0  0  0
  -12.0792   -5.5021    8.5103 O   0  0  0  0  0  0  0  0  0  0  0  0
  -12.1250   -1.7414    8.6304 C   0  0  0  0  0  0  0  0  0  0  0  0
   -8.9641   -4.3246    9.7154 N   0  0  0  0  0  0  0  0  0  0  0  0
   -9.9442   -5.0944   10.5263 C   0  0  0  0  0  0  0  0  0  0  0  0
   -9.5059   -6.5592   10.6151 C   0  0  0  0  0  0  0  0  0  0  0  0
  -10.3415   -7.2638   11.6132 N   0  0  0  0  0  0  0  0  0  0  0  0
  -10.0007   -6.7690   12.9781 C   0  0  0  0  0  0  0  0  0  0  0  0
  -10.0965   -8.7306   11.5156 C   0  0  0  0  0  0  0  0  0  0  0  0
  -10.8640   -7.5015   14.0179 C   0  0  0  0  0  0  0  0  0  0  0  0
  -10.9578   -9.4648   12.5589 C   0  0  0  0  0  0  0  0  0  0  0  0
  -10.6186   -8.9684   13.9216 N   0  0  0  0  0  0  0  0  0  0  0  0
  -10.2363   -8.3677    6.8906 C   0  0  0  0  0  0  0  0  0  0  0  0
   -5.0407  -11.0662    4.3228 N   0  0  0  0  0  0  0  0  0  0  0  0
   -8.9377   -7.8216    6.7545 C   0  0  0  0  0  0  0  0  0  0  0  0
   -8.6724   -6.5036    7.2128 C   0  0  0  0  0  0  0  0  0  0  0  0
   -9.7064   -5.7320    7.8106 C   0  0  0  0  0  0  0  0  0  0  0  0
  -11.0193   -6.2786    7.9319 C   0  0  0  0  0  0  0  0  0  0  0  0
  -11.2782   -7.5996    7.4742 C   0  0  0  0  0  0  0  0  0  0  0  0
   -5.8362  -12.2273    4.1928 C   0  0  0  0  0  0  0  0  0  0  0  0
   -7.1274  -12.0176    4.7279 C   0  0  0  0  0  0  0  0  0  0  0  0
   -8.1720   -9.9408    5.8048 C   0  0  0  0  0  0  0  0  0  0  0  0
   -7.9236   -8.5878    6.1628 C   0  0  0  0  0  0  0  0  0  0  0  0
   -6.6478   -8.0113    5.9134 C   0  0  0  0  0  0  0  0  0  0  0  0
   -5.6237   -8.7863    5.3051 C   0  0  0  0  0  0  0  0  0  0  0  0
   -5.8810  -10.1430    4.9334 C   0  0  0  0  0  0  0  0  0  0  0  0
   -7.1424  -10.7153    5.1798 C   0  0  0  0  0  0  0  0  0  0  0  0
  1  6  1  0  0  0  0
  2  4  1  0  0  0  0
  3  7  1  0  0  0  0
  4  5  1  0  0  0  0
  6  2  1  0  0  0  0
  7  8  1  0  0  0  0
  8  9  1  0  0  0  0
  9 10  1  0  0  0  0
 10 11  1  0  0  0  0
 10 12  1  0  0  0  0
 11 13  1  0  0  0  0
 13 15  1  0  0  0  0
 14 12  1  0  0  0  0
 15 14  1  0  0  0  0
 16 18  2  0  0  0  0
 16 22  1  0  0  0  0
 17 23  1  0  0  0  0
 17 29  1  0  0  0  0
 18 19  1  0  0  0  0
 18 26  1  0  0  0  0
 19 20  2  0  0  0  0
 20  3  1  0  0  0  0
 20 21  1  0  0  0  0
 21  5  1  0  0  0  0
 21 22  2  0  0  0  0
 23 24  2  0  0  0  0
 24 30  1  0  0  0  0
 25 26  2  0  0  0  0
 25 30  1  0  0  0  0
 26 27  1  0  0  0  0
 27 28  2  0  0  0  0
 28 29  1  0  0  0  0
 29 30  2  0  0  0  0
M  END
>  <CHROM.1>
85.51338943,178.09078911,-50.88840114,-133.86533173,-87.60448605,92.53870080
169.94289980,-69.70460251,-5.19780034,-90.78255349,43.85045349,-9.37036180
-7.17390631,8.44736506,3.09971306,-1.04914071,2.31746440

>  <Name>
1uts_lig

>  <RI>
0

>  <Rbt.Current_Directory>
/home/itssahil/PROJECTS/Mol_Feturizer/New_Systems/rnas/1uts

>  <Rbt.Executable>
rbdock ($Id: //depot/dev/client3/rdock/2013.1/src/exe/rbdock.cxx#4 $)

>  <Rbt.Library>
libRbt.so (2013.1, Build901 2013/11/27)

>  <Rbt.Parameter_File>
/export/apps/rDock/src/rDock_2013.1_src/data/scripts/dock_solv.prm

>  <Rbt.Receptor>
prm/blind_docking_60.prm

>  <SCORE>
-22.9088

>  <SCORE.INTER>
-35.5543

>  <SCORE.INTER.CONST>
1

>  <SCORE.INTER.POLAR>
-3.22987

>  <SCORE.INTER.ROT>
10

>  <SCORE.INTER.SOLV>
10.6571

>  <SCORE.INTER.VDW>
-26.7556

>  <SCORE.INTER.norm>
-1.18514

>  <SCORE.INTRA>
8.74412

>  <SCORE.INTRA.DIHEDRAL>
-2.02828

>  <SCORE.INTRA.DIHEDRAL.0>
18.0451

>  <SCORE.INTRA.POLAR>
0.196815

>  <SCORE.INTRA.POLAR.0>
-0.196815

>  <SCORE.INTRA.REPUL>
0.0649675

>  <SCORE.INTRA.REPUL.0>
0

>  <SCORE.INTRA.SOLV>
0.314815

>  <SCORE.INTRA.SOLV.lig_0>
-14.7906

>  <SCORE.INTRA.VDW>
8.60685

>  <SCORE.INTRA.VDW.0>
-0.411701

>  <SCORE.INTRA.norm>
0.291471

>  <SCORE.RESTR>
3.9014

>  <SCORE.RESTR.CAVITY>
3.9014

>  <SCORE.RESTR.norm>
0.130047

>  <SCORE.SYSTEM>
0

>  <SCORE.SYSTEM.CONST>
0

>  <SCORE.SYSTEM.DIHEDRAL>
0

>  <SCORE.SYSTEM.SOLV>
0

>  <SCORE.SYSTEM.norm>
0

>  <SCORE.heavy>
30

>  <SCORE.norm>
-0.763625

>  <RMSD>
17.667

$$$$
1uts_lig
 OpenBabel11021811413D
libRbt.so/2013.1/901 2013/11/27
 30 33  0  0  0  0  0  0  0  0999 V2000
  -13.2781   -5.0987   10.8594 N   0  0  0  0  0  0  0  0  0  0  0  0
  -11.6987   -4.7823    9.0040 C   0  0  0  0  0  0  0  0  0  0  0  0
   -8.9601   -8.6777    9.8777 C   0  0  0  0  0  0  0  0  0  0  0  0
  -10.2122   -4.7311    8.6394 C   0  0  0  0  0  0  0  0  0  0  0  0
   -9.5443   -5.8699    9.2023 O   0  0  0  0  0  0  0  0  0  0  0  0
  -11.8491   -4.9117   10.5209 C   0  0  0  0  0  0  0  0  0  0  0  0
  -10.2456   -8.2374   10.4657 N   0  0  0  0  0  0  0  0  0  0  0  0
  -10.3671   -8.7599   11.8525 C   0  0  0  0  0  0  0  0  0  0  0  0
  -10.1865   -7.6159   12.8545 C   0  0  0  0  0  0  0  0  0  0  0  0
   -8.8334   -7.0357   12.7012 N   0  0  0  0  0  0  0  0  0  0  0  0
   -8.2179   -6.8592   14.0479 C   0  0  0  0  0  0  0  0  0  0  0  0
   -8.9344   -5.7248   11.9996 C   0  0  0  0  0  0  0  0  0  0  0  0
   -6.8136   -6.2531   13.8928 C   0  0  0  0  0  0  0  0  0  0  0  0
   -7.5292   -5.1152   11.8470 C   0  0  0  0  0  0  0  0  0  0  0  0
   -6.9141   -4.9414   13.1923 N   0  0  0  0  0  0  0  0  0  0  0  0
   -8.4953   -7.1276    5.8039 C   0  0  0  0  0  0  0  0  0  0  0  0
   -6.3008  -12.0133    2.1437 N   0  0  0  0  0  0  0  0  0  0  0  0
   -8.1868   -8.4788    6.0906 C   0  0  0  0  0  0  0  0  0  0  0  0
   -8.3392   -8.9746    7.4130 C   0  0  0  0  0  0  0  0  0  0  0  0
   -8.8036   -8.1187    8.4491 C   0  0  0  0  0  0  0  0  0  0  0  0
   -9.0986   -6.7522    8.1612 C   0  0  0  0  0  0  0  0  0  0  0  0
   -8.9471   -6.2623    6.8350 C   0  0  0  0  0  0  0  0  0  0  0  0
   -5.7330  -12.9665    3.0194 C   0  0  0  0  0  0  0  0  0  0  0  0
   -5.8891  -12.5705    4.3671 C   0  0  0  0  0  0  0  0  0  0  0  0
   -7.0189  -10.5068    5.3814 C   0  0  0  0  0  0  0  0  0  0  0  0
   -7.7279   -9.3164    5.0642 C   0  0  0  0  0  0  0  0  0  0  0  0
   -7.9769   -8.9804    3.7050 C   0  0  0  0  0  0  0  0  0  0  0  0
   -7.5193   -9.8349    2.6658 C   0  0  0  0  0  0  0  0  0  0  0  0
   -6.8184  -11.0389    2.9886 C   0  0  0  0  0  0  0  0  0  0  0  0
   -6.5706  -11.3726    4.3327 C   0  0  0  0  0  0  0  0  0  0  0  0
  1  6  1  0  0  0  0
  2  4  1  0  0  0  0
  3  7  1  0  0  0  0
  4  5  1  0  0  0  0
  6  2  1  0  0  0  0
  7  8  1  0  0  0  0
  8  9  1  0  0  0  0
  9 10  1  0  0  0  0
 10 11  1  0  0  0  0
 10 12  1  0  0  0  0
 11 13  1  0  0  0  0
 13 15  1  0  0  0  0
 14 12  1  0  0  0  0
 15 14  1  0  0  0  0
 16 18  2  0  0  0  0
 16 22  1  0  0  0  0
 17 23  1  0  0  0  0
 17 29  1  0  0  0  0
 18 19  1  0  0  0  0
 18 26  1  0  0  0  0
 19 20  2  0  0  0  0
 20  3  1  0  0  0  0
 20 21  1  0  0  0  0
 21  5  1  0  0  0  0
 21 22  2  0  0  0  0
 23 24  2  0  0  0  0
 24 30  1  0  0  0  0
 25 26  2  0  0  0  0
 25 30  1  0  0  0  0
 26 27  1  0  0  0  0
 27 28  2  0  0  0  0
 28 29  1  0  0  0  0
 29 30  2  0  0  0  0
M  END
>  <CHROM.1>
54.75323317,54.10753434,-178.77069530,112.47624035,-174.31469519,107.44425652
-61.63825094,-133.98302403,159.76302360,-135.35027190,-159.82033354,-8.64522186
-7.85643046,8.43300412,1.93371884,-0.71680906,1.27671904

>  <Name>
1uts_lig

>  <RI>
0

>  <Rbt.Current_Directory>
/home/itssahil/PROJECTS/Mol_Feturizer/New_Systems/rnas/1uts

>  <Rbt.Executable>
rbdock ($Id: //depot/dev/client3/rdock/2013.1/src/exe/rbdock.cxx#4 $)

>  <Rbt.Library>
libRbt.so (2013.1, Build901 2013/11/27)

>  <Rbt.Parameter_File>
/export/apps/rDock/src/rDock_2013.1_src/data/scripts/dock_solv.prm

>  <Rbt.Receptor>
prm/blind_docking_80.prm

>  <SCORE>
-22.4351

>  <SCORE.INTER>
-24.0282

>  <SCORE.INTER.CONST>
1

>  <SCORE.INTER.POLAR>
-2.04661

>  <SCORE.INTER.ROT>
10

>  <SCORE.INTER.SOLV>
5.58028

>  <SCORE.INTER.VDW>
-21.3236

>  <SCORE.INTER.norm>
-0.800941

>  <SCORE.INTRA>
0.636979

>  <SCORE.INTRA.DIHEDRAL>
-2.56658

>  <SCORE.INTRA.DIHEDRAL.0>
18.0451

>  <SCORE.INTRA.POLAR>
-0.410746

>  <SCORE.INTRA.POLAR.0>
-0.196815

>  <SCORE.INTRA.REPUL>
0

>  <SCORE.INTRA.REPUL.0>
0

>  <SCORE.INTRA.SOLV>
0.46431

>  <SCORE.INTRA.SOLV.lig_0>
-14.7906

>  <SCORE.INTRA.VDW>
3.08465

>  <SCORE.INTRA.VDW.0>
-0.411701

>  <SCORE.INTRA.norm>
0.0212326

>  <SCORE.RESTR>
0.956184

>  <SCORE.RESTR.CAVITY>
0.956184

>  <SCORE.RESTR.norm>
0.0318728

>  <SCORE.SYSTEM>
0

>  <SCORE.SYSTEM.CONST>
0

>  <SCORE.SYSTEM.DIHEDRAL>
0

>  <SCORE.SYSTEM.SOLV>
0

>  <SCORE.SYSTEM.norm>
0

>  <SCORE.heavy>
30

>  <SCORE.norm>
-0.747836

>  <RMSD>
17.681

$$$$
1uts_lig
 OpenBabel11021811413D
libRbt.so/2013.1/901 2013/11/27
 30 33  0  0  0  0  0  0  0  0999 V2000
   -6.1991  -11.5549    1.6758 N   0  0  0  0  0  0  0  0  0  0  0  0
   -7.0205  -11.3291    3.9805 C   0  0  0  0  0  0  0  0  0  0  0  0
   -6.9087   -8.7480    7.4223 C   0  0  0  0  0  0  0  0  0  0  0  0
   -7.7162  -10.2749    4.8464 C   0  0  0  0  0  0  0  0  0  0  0  0
   -7.2210   -8.9728    4.5012 O   0  0  0  0  0  0  0  0  0  0  0  0
   -7.3202  -11.0581    2.5050 C   0  0  0  0  0  0  0  0  0  0  0  0
   -7.4459   -8.9515    8.7869 N   0  0  0  0  0  0  0  0  0  0  0  0
   -8.8141   -9.5281    8.7057 C   0  0  0  0  0  0  0  0  0  0  0  0
   -9.3995   -9.6727   10.1135 C   0  0  0  0  0  0  0  0  0  0  0  0
   -9.7270   -8.3330   10.6508 N   0  0  0  0  0  0  0  0  0  0  0  0
  -10.4644   -8.4855   11.9380 C   0  0  0  0  0  0  0  0  0  0  0  0
  -10.5582   -7.5927    9.6598 C   0  0  0  0  0  0  0  0  0  0  0  0
  -10.8097   -7.0958   12.4972 C   0  0  0  0  0  0  0  0  0  0  0  0
  -10.9077   -6.2023   10.2203 C   0  0  0  0  0  0  0  0  0  0  0  0
  -11.6421   -6.3555   11.5070 N   0  0  0  0  0  0  0  0  0  0  0  0
   -9.5599   -6.0877    5.1623 C   0  0  0  0  0  0  0  0  0  0  0  0
  -12.2483   -1.8902    9.2613 N   0  0  0  0  0  0  0  0  0  0  0  0
   -9.4517   -5.9584    6.5676 C   0  0  0  0  0  0  0  0  0  0  0  0
   -8.5911   -6.8240    7.2939 C   0  0  0  0  0  0  0  0  0  0  0  0
   -7.8355   -7.8181    6.6135 C   0  0  0  0  0  0  0  0  0  0  0  0
   -7.9585   -7.9574    5.1984 C   0  0  0  0  0  0  0  0  0  0  0  0
   -8.8192   -7.0860    4.4762 C   0  0  0  0  0  0  0  0  0  0  0  0
  -11.1185   -1.1943    9.7484 C   0  0  0  0  0  0  0  0  0  0  0  0
   -9.9221   -1.8401    9.3621 C   0  0  0  0  0  0  0  0  0  0  0  0
   -9.5407   -3.9496    7.9591 C   0  0  0  0  0  0  0  0  0  0  0  0
  -10.2009   -4.9770    7.2316 C   0  0  0  0  0  0  0  0  0  0  0  0
  -11.6215   -5.0033    7.1730 C   0  0  0  0  0  0  0  0  0  0  0  0
  -12.3796   -4.0026    7.8389 C   0  0  0  0  0  0  0  0  0  0  0  0
  -11.7122   -2.9624    8.5583 C   0  0  0  0  0  0  0  0  0  0  0  0
  -10.3068   -2.9350    8.6179 C   0  0  0  0  0  0  0  0  0  0  0  0
  1  6  1  0  0  0  0
  2  4  1  0  0  0  0
  3  7  1  0  0  0  0
  4  5  1  0  0  0  0
  6  2  1  0  0  0  0
  7  8  1  0  0  0  0
  8  9  1  0  0  0  0
  9 10  1  0  0  0  0
 10 11  1  0  0  0  0
 10 12  1  0  0  0  0
 11 13  1  0  0  0  0
 13 15  1  0  0  0  0
 14 12  1  0  0  0  0
 15 14  1  0  0  0  0
 16 18  2  0  0  0  0
 16 22  1  0  0  0  0
 17 23  1  0  0  0  0
 17 29  1  0  0  0  0
 18 19  1  0  0  0  0
 18 26  1  0  0  0  0
 19 20  2  0  0  0  0
 20  3  1  0  0  0  0
 20 21  1  0  0  0  0
 21  5  1  0  0  0  0
 21 22  2  0  0  0  0
 23 24  2  0  0  0  0
 24 30  1  0  0  0  0
 25 26  2  0  0  0  0
 25 30  1  0  0  0  0
 26 27  1  0  0  0  0
 27 28  2  0  0  0  0
 28 29  1  0  0  0  0
 29 30  2  0  0  0  0
M  END
>  <CHROM.1>
176.57792788,-60.62758378,58.19982009,173.91418189,151.43843820,-177.12724359
71.62719299,172.36123103,-118.80209141,29.90749735,68.51194603,-9.40240208
-6.94972091,7.66899654,0.06453315,1.12718517,-0.90471242

>  <Name>
1uts_lig

>  <RI>
0

>  <Rbt.Current_Directory>
/home/itssahil/PROJECTS/Mol_Feturizer/New_Systems/rnas/1uts

>  <Rbt.Executable>
rbdock ($Id: //depot/dev/client3/rdock/2013.1/src/exe/rbdock.cxx#4 $)

>  <Rbt.Library>
libRbt.so (2013.1, Build901 2013/11/27)

>  <Rbt.Parameter_File>
/export/apps/rDock/src/rDock_2013.1_src/data/scripts/dock_solv.prm

>  <Rbt.Receptor>
prm/blind_docking_20.prm

>  <SCORE>
-29.9312

>  <SCORE.INTER>
-31.4404

>  <SCORE.INTER.CONST>
1

>  <SCORE.INTER.POLAR>
-1.97203

>  <SCORE.INTER.ROT>
10

>  <SCORE.INTER.SOLV>
7.6408

>  <SCORE.INTER.VDW>
-27.2004

>  <SCORE.INTER.norm>
-1.04801

>  <SCORE.INTRA>
-1.09492

>  <SCORE.INTRA.DIHEDRAL>
-6.04962

>  <SCORE.INTRA.DIHEDRAL.0>
18.0451

>  <SCORE.INTRA.POLAR>
0.196815

>  <SCORE.INTRA.POLAR.0>
-0.196815

>  <SCORE.INTRA.REPUL>
0

>  <SCORE.INTRA.REPUL.0>
0

>  <SCORE.INTRA.SOLV>
-0.0850162

>  <SCORE.INTRA.SOLV.lig_0>
-14.7906

>  <SCORE.INTRA.VDW>
1.30323

>  <SCORE.INTRA.VDW.0>
-0.411701

>  <SCORE.INTRA.norm>
-0.0364973

>  <SCORE.RESTR>
2.60409

>  <SCORE.RESTR.CAVITY>
2.60409

>  <SCORE.RESTR.norm>
0.0868028

>  <SCORE.SYSTEM>
0

>  <SCORE.SYSTEM.CONST>
0

>  <SCORE.SYSTEM.DIHEDRAL>
0

>  <SCORE.SYSTEM.SOLV>
0

>  <SCORE.SYSTEM.norm>
0

>  <SCORE.heavy>
30

>  <SCORE.norm>
-0.997707

>  <RMSD>
17.685

$$$$
1uts_lig
 OpenBabel11021811413D
libRbt.so/2013.1/901 2013/11/27
 30 33  0  0  0  0  0  0  0  0999 V2000
   -4.3130  -12.1113    4.4644 N   0  0  0  0  0  0  0  0  0  0  0  0
   -5.7615  -10.1668    4.8620 C   0  0  0  0  0  0  0  0  0  0  0  0
   -9.3459   -6.4539    5.3179 C   0  0  0  0  0  0  0  0  0  0  0  0
   -6.9618   -9.4005    4.2986 C   0  0  0  0  0  0  0  0  0  0  0  0
   -6.9276   -8.0465    4.7733 O   0  0  0  0  0  0  0  0  0  0  0  0
   -5.6241  -11.5068    4.1370 C   0  0  0  0  0  0  0  0  0  0  0  0
   -9.0624   -5.0032    5.4023 N   0  0  0  0  0  0  0  0  0  0  0  0
   -9.3359   -4.5188    6.7813 C   0  0  0  0  0  0  0  0  0  0  0  0
  -10.8459   -4.5098    7.0370 C   0  0  0  0  0  0  0  0  0  0  0  0
  -11.1074   -4.0742    8.4273 N   0  0  0  0  0  0  0  0  0  0  0  0
  -10.3285   -2.8342    8.7094 C   0  0  0  0  0  0  0  0  0  0  0  0
  -10.7139   -5.1609    9.3680 C   0  0  0  0  0  0  0  0  0  0  0  0
  -10.5947   -2.3807   10.1540 C   0  0  0  0  0  0  0  0  0  0  0  0
  -10.9765   -4.7066   10.8151 C   0  0  0  0  0  0  0  0  0  0  0  0
  -10.2001   -3.4668   11.0954 N   0  0  0  0  0  0  0  0  0  0  0  0
   -7.2157   -8.5955    8.4944 C   0  0  0  0  0  0  0  0  0  0  0  0
  -10.2535   -7.7549   14.0972 N   0  0  0  0  0  0  0  0  0  0  0  0
   -8.3638   -7.8265    8.8008 C   0  0  0  0  0  0  0  0  0  0  0  0
   -9.0491   -7.1347    7.7668 C   0  0  0  0  0  0  0  0  0  0  0  0
   -8.5874   -7.2145    6.4243 C   0  0  0  0  0  0  0  0  0  0  0  0
   -7.4200   -7.9772    6.1201 C   0  0  0  0  0  0  0  0  0  0  0  0
   -6.7399   -8.6702    7.1588 C   0  0  0  0  0  0  0  0  0  0  0  0
  -11.0572   -8.9145   14.0118 C   0  0  0  0  0  0  0  0  0  0  0  0
  -11.0099   -9.4674   12.7120 C   0  0  0  0  0  0  0  0  0  0  0  0
   -9.7215   -8.7232   10.6263 C   0  0  0  0  0  0  0  0  0  0  0  0
   -8.8122   -7.7513   10.1271 C   0  0  0  0  0  0  0  0  0  0  0  0
   -8.3532   -6.7075   10.9768 C   0  0  0  0  0  0  0  0  0  0  0  0
   -8.8013   -6.6378   12.3236 C   0  0  0  0  0  0  0  0  0  0  0  0
   -9.7052   -7.6250   12.8269 C   0  0  0  0  0  0  0  0  0  0  0  0
  -10.1609   -8.6581   11.9875 C   0  0  0  0  0  0  0  0  0  0  0  0
  1  6  1  0  0  0  0
  2  4  1  0  0  0  0
  3  7  1  0  0  0  0
  4  5  1  0  0  0  0
  6  2  1  0  0  0  0
  7  8  1  0  0  0  0
  8  9  1  0  0  0  0
  9 10  1  0  0  0  0
 10 11  1  0  0  0  0
 10 12  1  0  0  0  0
 11 13  1  0  0  0  0
 13 15  1  0  0  0  0
 14 12  1  0  0  0  0
 15 14  1  0  0  0  0
 16 18  2  0  0  0  0
 16 22  1  0  0  0  0
 17 23  1  0  0  0  0
 17 29  1  0  0  0  0
 18 19  1  0  0  0  0
 18 26  1  0  0  0  0
 19 20  2  0  0  0  0
 20  3  1  0  0  0  0
 20 21  1  0  0  0  0
 21  5  1  0  0  0  0
 21 22  2  0  0  0  0
 23 24  2  0  0  0  0
 24 30  1  0  0  0  0
 25 26  2  0  0  0  0
 25 30  1  0  0  0  0
 26 27  1  0  0  0  0
 27 28  2  0  0  0  0
 28 29  1  0  0  0  0
 29 30  2  0  0  0  0
M  END
>  <CHROM.1>
-172.49253918,-168.14454953,-52.97257142,-79.08342468,167.75996316,-71.07229542
177.94067041,48.62197427,-88.22794912,74.57985849,-117.96665612,-8.88142559
-7.09737355,8.57459552,-0.36335888,-1.03729934,2.20151812

>  <Name>
1uts_lig

>  <RI>
0

>  <Rbt.Current_Directory>
/home/itssahil/PROJECTS/Mol_Feturizer/New_Systems/rnas/1uts

>  <Rbt.Executable>
rbdock ($Id: //depot/dev/client3/rdock/2013.1/src/exe/rbdock.cxx#4 $)

>  <Rbt.Library>
libRbt.so (2013.1, Build901 2013/11/27)

>  <Rbt.Parameter_File>
/export/apps/rDock/src/rDock_2013.1_src/data/scripts/dock_solv.prm

>  <Rbt.Receptor>
prm/blind_docking_60.prm

>  <SCORE>
-29.2847

>  <SCORE.INTER>
-35.3422

>  <SCORE.INTER.CONST>
1

>  <SCORE.INTER.POLAR>
-1.71652

>  <SCORE.INTER.ROT>
10

>  <SCORE.INTER.SOLV>
10.12

>  <SCORE.INTER.VDW>
-31.4797

>  <SCORE.INTER.norm>
-1.17807

>  <SCORE.INTRA>
4.43585

>  <SCORE.INTRA.DIHEDRAL>
-5.1568

>  <SCORE.INTRA.DIHEDRAL.0>
18.0451

>  <SCORE.INTRA.POLAR>
0.196815

>  <SCORE.INTRA.POLAR.0>
-0.196815

>  <SCORE.INTRA.REPUL>
0

>  <SCORE.INTRA.REPUL.0>
0

>  <SCORE.INTRA.SOLV>
-0.252732

>  <SCORE.INTRA.SOLV.lig_0>
-14.7906

>  <SCORE.INTRA.VDW>
6.47144

>  <SCORE.INTRA.VDW.0>
-0.411701

>  <SCORE.INTRA.norm>
0.147862

>  <SCORE.RESTR>
1.62158

>  <SCORE.RESTR.CAVITY>
1.62158

>  <SCORE.RESTR.norm>
0.0540526

>  <SCORE.SYSTEM>
0

>  <SCORE.SYSTEM.CONST>
0

>  <SCORE.SYSTEM.DIHEDRAL>
0

>  <SCORE.SYSTEM.SOLV>
0

>  <SCORE.SYSTEM.norm>
0

>  <SCORE.heavy>
30

>  <SCORE.norm>
-0.976158

>  <RMSD>
17.685

$$$$
1uts_lig
 OpenBabel11021811413D
libRbt.so/2013.1/901 2013/11/27
 30 33  0  0  0  0  0  0  0  0999 V2000
   -7.0029   -9.0092    1.8995 N   0  0  0  0  0  0  0  0  0  0  0  0
   -6.7453   -7.8661    4.0592 C   0  0  0  0  0  0  0  0  0  0  0  0
  -10.6912   -6.8006    6.6513 C   0  0  0  0  0  0  0  0  0  0  0  0
   -7.5443   -7.4141    5.2850 C   0  0  0  0  0  0  0  0  0  0  0  0
   -8.4589   -8.4522    5.6666 O   0  0  0  0  0  0  0  0  0  0  0  0
   -7.7060   -8.1922    2.9142 C   0  0  0  0  0  0  0  0  0  0  0  0
  -10.9108   -5.4394    7.1907 N   0  0  0  0  0  0  0  0  0  0  0  0
   -9.6132   -4.7179    7.2731 C   0  0  0  0  0  0  0  0  0  0  0  0
   -9.4085   -4.1811    8.6928 C   0  0  0  0  0  0  0  0  0  0  0  0
  -10.2730   -2.9978    8.9014 N   0  0  0  0  0  0  0  0  0  0  0  0
   -9.7514   -2.2035   10.0508 C   0  0  0  0  0  0  0  0  0  0  0  0
  -11.6685   -3.4466    9.1700 C   0  0  0  0  0  0  0  0  0  0  0  0
  -10.6492   -0.9756   10.2730 C   0  0  0  0  0  0  0  0  0  0  0  0
  -12.5677   -2.2179    9.3964 C   0  0  0  0  0  0  0  0  0  0  0  0
  -12.0448   -1.4239   10.5429 N   0  0  0  0  0  0  0  0  0  0  0  0
   -8.1220   -9.0857    9.3702 C   0  0  0  0  0  0  0  0  0  0  0  0
   -9.8538   -7.8827   15.4527 N   0  0  0  0  0  0  0  0  0  0  0  0
   -9.1731   -8.2899    9.8851 C   0  0  0  0  0  0  0  0  0  0  0  0
  -10.0016   -7.5516    8.9985 C   0  0  0  0  0  0  0  0  0  0  0  0
   -9.7805   -7.6117    7.5952 C   0  0  0  0  0  0  0  0  0  0  0  0
   -8.7098   -8.4019    7.0792 C   0  0  0  0  0  0  0  0  0  0  0  0
   -7.8856   -9.1413    7.9712 C   0  0  0  0  0  0  0  0  0  0  0  0
   -8.7439   -7.0442   15.7037 C   0  0  0  0  0  0  0  0  0  0  0  0
   -8.0431   -6.7626   14.5091 C   0  0  0  0  0  0  0  0  0  0  0  0
   -8.4978   -7.4899   12.0949 C   0  0  0  0  0  0  0  0  0  0  0  0
   -9.3841   -8.2344   11.2700 C   0  0  0  0  0  0  0  0  0  0  0  0
  -10.4884   -8.9167   11.8508 C   0  0  0  0  0  0  0  0  0  0  0  0
  -10.7064   -8.8521   13.2536 C   0  0  0  0  0  0  0  0  0  0  0  0
   -9.8209   -8.0908   14.0791 C   0  0  0  0  0  0  0  0  0  0  0  0
   -8.7276   -7.4156   13.5063 C   0  0  0  0  0  0  0  0  0  0  0  0
  1  6  1  0  0  0  0
  2  4  1  0  0  0  0
  3  7  1  0  0  0  0
  4  5  1  0  0  0  0
  6  2  1  0  0  0  0
  7  8  1  0  0  0  0
  8  9  1  0  0  0  0
  9 10  1  0  0  0  0
 10 11  1  0  0  0  0
 10 12  1  0  0  0  0
 11 13  1  0  0  0  0
 13 15  1  0  0  0  0
 14 12  1  0  0  0  0
 15 14  1  0  0  0  0
 16 18  2  0  0  0  0
 16 22  1  0  0  0  0
 17 23  1  0  0  0  0
 17 29  1  0  0  0  0
 18 19  1  0  0  0  0
 18 26  1  0  0  0  0
 19 20  2  0  0  0  0
 20  3  1  0  0  0  0
 20 21  1  0  0  0  0
 21  5  1  0  0  0  0
 21 22  2  0  0  0  0
 23 24  2  0  0  0  0
 24 30  1  0  0  0  0
 25 26  2  0  0  0  0
 25 30  1  0  0  0  0
 26 27  1  0  0  0  0
 27 28  2  0  0  0  0
 28 29  1  0  0  0  0
 29 30  2  0  0  0  0
M  END
>  <CHROM.1>
-23.38552148,58.36698230,62.22329983,151.02692412,-162.60454039,-126.43386572
-75.21242981,-160.29640635,74.27048982,43.56753507,89.83710919,-9.44955635
-6.45399226,9.20854583,-1.02455716,-1.15929954,1.87786894

>  <Name>
1uts_lig

>  <RI>
0

>  <Rbt.Current_Directory>
/home/itssahil/PROJECTS/Mol_Feturizer/New_Systems/rnas/1uts

>  <Rbt.Executable>
rbdock ($Id: //depot/dev/client3/rdock/2013.1/src/exe/rbdock.cxx#4 $)

>  <Rbt.Library>
libRbt.so (2013.1, Build901 2013/11/27)

>  <Rbt.Parameter_File>
/export/apps/rDock/src/rDock_2013.1_src/data/scripts/dock_solv.prm

>  <Rbt.Receptor>
prm/blind_docking_80.prm

>  <SCORE>
-27.9887

>  <SCORE.INTER>
-33.9532

>  <SCORE.INTER.CONST>
1

>  <SCORE.INTER.POLAR>
-2.49225

>  <SCORE.INTER.ROT>
10

>  <SCORE.INTER.SOLV>
7.6515

>  <SCORE.INTER.VDW>
-27.1451

>  <SCORE.INTER.norm>
-1.13177

>  <SCORE.INTRA>
4.081

>  <SCORE.INTRA.DIHEDRAL>
3.97614

>  <SCORE.INTRA.DIHEDRAL.0>
18.0451

>  <SCORE.INTRA.POLAR>
0.196815

>  <SCORE.INTRA.POLAR.0>
-0.196815

>  <SCORE.INTRA.REPUL>
0

>  <SCORE.INTRA.REPUL.0>
0

>  <SCORE.INTRA.SOLV>
-0.235185

>  <SCORE.INTRA.SOLV.lig_0>
-14.7906

>  <SCORE.INTRA.VDW>
1.54135

>  <SCORE.INTRA.VDW.0>
-0.411701

>  <SCORE.INTRA.norm>
0.136033

>  <SCORE.RESTR>
1.8835

>  <SCORE.RESTR.CAVITY>
1.8835

>  <SCORE.RESTR.norm>
0.0627833

>  <SCORE.SYSTEM>
0

>  <SCORE.SYSTEM.CONST>
0

>  <SCORE.SYSTEM.DIHEDRAL>
0

>  <SCORE.SYSTEM.SOLV>
0

>  <SCORE.SYSTEM.norm>
0

>  <SCORE.heavy>
30

>  <SCORE.norm>
-0.932958

>  <RMSD>
17.731

$$$$
1uts_lig
 OpenBabel11021811413D
libRbt.so/2013.1/901 2013/11/27
 30 33  0  0  0  0  0  0  0  0999 V2000
  -11.7941   -1.7610    8.5773 N   0  0  0  0  0  0  0  0  0  0  0  0
  -13.1101   -3.7588    8.0166 C   0  0  0  0  0  0  0  0  0  0  0  0
  -10.1859   -6.0853    8.9240 C   0  0  0  0  0  0  0  0  0  0  0  0
  -12.2844   -4.8685    7.3594 C   0  0  0  0  0  0  0  0  0  0  0  0
  -11.1065   -4.2996    6.7689 O   0  0  0  0  0  0  0  0  0  0  0  0
  -12.2709   -3.0649    9.0911 C   0  0  0  0  0  0  0  0  0  0  0  0
   -9.5107   -4.9559    9.6026 N   0  0  0  0  0  0  0  0  0  0  0  0
   -9.6217   -5.1185   11.0764 C   0  0  0  0  0  0  0  0  0  0  0  0
   -8.4386   -5.9396   11.5974 C   0  0  0  0  0  0  0  0  0  0  0  0
   -8.9252   -7.2492   12.0863 N   0  0  0  0  0  0  0  0  0  0  0  0
   -9.7131   -7.9150   11.0094 C   0  0  0  0  0  0  0  0  0  0  0  0
   -9.7700   -7.0420   13.2964 C   0  0  0  0  0  0  0  0  0  0  0  0
  -10.2235   -9.2741   11.5150 C   0  0  0  0  0  0  0  0  0  0  0  0
  -10.2847   -8.4020   13.8015 C   0  0  0  0  0  0  0  0  0  0  0  0
  -11.0694   -9.0674   12.7246 N   0  0  0  0  0  0  0  0  0  0  0  0
   -8.7367   -6.4820    4.8061 C   0  0  0  0  0  0  0  0  0  0  0  0
   -4.6501  -11.4498    4.4714 N   0  0  0  0  0  0  0  0  0  0  0  0
   -8.2557   -7.3488    5.8163 C   0  0  0  0  0  0  0  0  0  0  0  0
   -8.7292   -7.2146    7.1487 C   0  0  0  0  0  0  0  0  0  0  0  0
   -9.6870   -6.2142    7.4705 C   0  0  0  0  0  0  0  0  0  0  0  0
  -10.1584   -5.3305    6.4536 C   0  0  0  0  0  0  0  0  0  0  0  0
   -9.6833   -5.4716    5.1210 C   0  0  0  0  0  0  0  0  0  0  0  0
   -5.5831  -12.5116    4.4763 C   0  0  0  0  0  0  0  0  0  0  0  0
   -6.8735  -12.0486    4.8201 C   0  0  0  0  0  0  0  0  0  0  0  0
   -7.7104   -9.6902    5.3691 C   0  0  0  0  0  0  0  0  0  0  0  0
   -7.3103   -8.3318    5.4918 C   0  0  0  0  0  0  0  0  0  0  0  0
   -5.9514   -7.9711    5.2779 C   0  0  0  0  0  0  0  0  0  0  0  0
   -4.9958   -8.9672    4.9399 C   0  0  0  0  0  0  0  0  0  0  0  0
   -5.4042  -10.3308    4.8037 C   0  0  0  0  0  0  0  0  0  0  0  0
   -6.7480  -10.6897    5.0154 C   0  0  0  0  0  0  0  0  0  0  0  0
  1  6  1  0  0  0  0
  2  4  1  0  0  0  0
  3  7  1  0  0  0  0
  4  5  1  0  0  0  0
  6  2  1  0  0  0  0
  7  8  1  0  0  0  0
  8  9  1  0  0  0  0
  9 10  1  0  0  0  0
 10 11  1  0  0  0  0
 10 12  1  0  0  0  0
 11 13  1  0  0  0  0
 13 15  1  0  0  0  0
 14 12  1  0  0  0  0
 15 14  1  0  0  0  0
 16 18  2  0  0  0  0
 16 22  1  0  0  0  0
 17 23  1  0  0  0  0
 17 29  1  0  0  0  0
 18 19  1  0  0  0  0
 18 26  1  0  0  0  0
 19 20  2  0  0  0  0
 20  3  1  0  0  0  0
 20 21  1  0  0  0  0
 21  5  1  0  0  0  0
 21 22  2  0  0  0  0
 23 24  2  0  0  0  0
 24 30  1  0  0  0  0
 25 26  2  0  0  0  0
 25 30  1  0  0  0  0
 26 27  1  0  0  0  0
 27 28  2  0  0  0  0
 28 29  1  0  0  0  0
 29 30  2  0  0  0  0
M  END
>  <CHROM.1>
-170.45493798,-59.44720477,-160.49037399,165.23953504,103.30435599,89.04831931
-112.26008270,53.91419506,-103.92865182,101.47801958,-56.73650026,-9.05248796
-7.19413874,8.04117506,2.77947295,-0.95346537,1.97220925

>  <Name>
1uts_lig

>  <RI>
0

>  <Rbt.Current_Directory>
/home/itssahil/PROJECTS/Mol_Feturizer/New_Systems/rnas/1uts

>  <Rbt.Executable>
rbdock ($Id: //depot/dev/client3/rdock/2013.1/src/exe/rbdock.cxx#4 $)

>  <Rbt.Library>
libRbt.so (2013.1, Build901 2013/11/27)

>  <Rbt.Parameter_File>
/export/apps/rDock/src/rDock_2013.1_src/data/scripts/dock_solv.prm

>  <Rbt.Receptor>
prm/blind_docking_100.prm

>  <SCORE>
-28.6057

>  <SCORE.INTER>
-40.1828

>  <SCORE.INTER.CONST>
1

>  <SCORE.INTER.POLAR>
-3.39476

>  <SCORE.INTER.ROT>
10

>  <SCORE.INTER.SOLV>
10.7669

>  <SCORE.INTER.VDW>
-29.3283

>  <SCORE.INTER.norm>
-1.33943

>  <SCORE.INTRA>
9.06031

>  <SCORE.INTRA.DIHEDRAL>
4.30573

>  <SCORE.INTRA.DIHEDRAL.0>
18.0451

>  <SCORE.INTRA.POLAR>
0.196815

>  <SCORE.INTRA.POLAR.0>
-0.196815

>  <SCORE.INTRA.REPUL>
0

>  <SCORE.INTRA.REPUL.0>
0

>  <SCORE.INTRA.SOLV>
0.27187

>  <SCORE.INTRA.SOLV.lig_0>
-14.7906

>  <SCORE.INTRA.VDW>
6.10234

>  <SCORE.INTRA.VDW.0>
-0.411701

>  <SCORE.INTRA.norm>
0.30201

>  <SCORE.RESTR>
2.51678

>  <SCORE.RESTR.CAVITY>
2.51678

>  <SCORE.RESTR.norm>
0.0838926

>  <SCORE.SYSTEM>
0

>  <SCORE.SYSTEM.CONST>
0

>  <SCORE.SYSTEM.DIHEDRAL>
0

>  <SCORE.SYSTEM.SOLV>
0

>  <SCORE.SYSTEM.norm>
0

>  <SCORE.heavy>
30

>  <SCORE.norm>
-0.953523

>  <RMSD>
17.735

$$$$
1uts_lig
 OpenBabel11021811413D
libRbt.so/2013.1/901 2013/11/27
 30 33  0  0  0  0  0  0  0  0999 V2000
  -10.2294   -1.3179    8.6549 N   0  0  0  0  0  0  0  0  0  0  0  0
   -9.7470   -3.4450    9.7863 C   0  0  0  0  0  0  0  0  0  0  0  0
   -8.6887   -8.0992    9.6022 C   0  0  0  0  0  0  0  0  0  0  0  0
   -9.3100   -4.3274    8.6134 C   0  0  0  0  0  0  0  0  0  0  0  0
   -9.9663   -5.6004    8.7050 O   0  0  0  0  0  0  0  0  0  0  0  0
  -10.8455   -2.4861    9.3236 C   0  0  0  0  0  0  0  0  0  0  0  0
   -9.9620   -7.8393   10.3116 N   0  0  0  0  0  0  0  0  0  0  0  0
   -9.7240   -7.8262   11.7793 C   0  0  0  0  0  0  0  0  0  0  0  0
  -11.0587   -7.6971   12.5192 C   0  0  0  0  0  0  0  0  0  0  0  0
  -10.8358   -7.8740   13.9718 N   0  0  0  0  0  0  0  0  0  0  0  0
   -9.8457   -6.8641   14.4446 C   0  0  0  0  0  0  0  0  0  0  0  0
  -10.3354   -9.2537   14.2305 C   0  0  0  0  0  0  0  0  0  0  0  0
   -9.6087   -7.0473   15.9524 C   0  0  0  0  0  0  0  0  0  0  0  0
  -10.0942   -9.4371   15.7397 C   0  0  0  0  0  0  0  0  0  0  0  0
   -9.1070   -8.4267   16.2116 N   0  0  0  0  0  0  0  0  0  0  0  0
   -9.0275   -7.0628    5.3566 C   0  0  0  0  0  0  0  0  0  0  0  0
   -6.2662  -11.8695    1.9891 N   0  0  0  0  0  0  0  0  0  0  0  0
   -8.3903   -8.2648    5.7470 C   0  0  0  0  0  0  0  0  0  0  0  0
   -8.2835   -8.5944    7.1245 C   0  0  0  0  0  0  0  0  0  0  0  0
   -8.8174   -7.7222    8.1125 C   0  0  0  0  0  0  0  0  0  0  0  0
   -9.4450   -6.5028    7.7174 C   0  0  0  0  0  0  0  0  0  0  0  0
   -9.5518   -6.1796    6.3369 C   0  0  0  0  0  0  0  0  0  0  0  0
   -5.8499  -12.8574    2.9102 C   0  0  0  0  0  0  0  0  0  0  0  0
   -6.1334  -12.4623    4.2373 C   0  0  0  0  0  0  0  0  0  0  0  0
   -7.2589  -10.3477    5.1460 C   0  0  0  0  0  0  0  0  0  0  0  0
   -7.8650   -9.1190    4.7672 C   0  0  0  0  0  0  0  0  0  0  0  0
   -7.9437   -8.7614    3.3931 C   0  0  0  0  0  0  0  0  0  0  0  0
   -7.4192   -9.6325    2.4002 C   0  0  0  0  0  0  0  0  0  0  0  0
   -6.8225  -10.8743    2.7836 C   0  0  0  0  0  0  0  0  0  0  0  0
   -6.7432  -11.2295    4.1426 C   0  0  0  0  0  0  0  0  0  0  0  0
  1  6  1  0  0  0  0
  2  4  1  0  0  0  0
  3  7  1  0  0  0  0
  4  5  1  0  0  0  0
  6  2  1  0  0  0  0
  7  8  1  0  0  0  0
  8  9  1  0  0  0  0
  9 10  1  0  0  0  0
 10 11  1  0  0  0  0
 10 12  1  0  0  0  0
 11 13  1  0  0  0  0
 13 15  1  0  0  0  0
 14 12  1  0  0  0  0
 15 14  1  0  0  0  0
 16 18  2  0  0  0  0
 16 22  1  0  0  0  0
 17 23  1  0  0  0  0
 17 29  1  0  0  0  0
 18 19  1  0  0  0  0
 18 26  1  0  0  0  0
 19 20  2  0  0  0  0
 20  3  1  0  0  0  0
 20 21  1  0  0  0  0
 21  5  1  0  0  0  0
 21 22  2  0  0  0  0
 23 24  2  0  0  0  0
 24 30  1  0  0  0  0
 25 26  2  0  0  0  0
 25 30  1  0  0  0  0
 26 27  1  0  0  0  0
 27 28  2  0  0  0  0
 28 29  1  0  0  0  0
 29 30  2  0  0  0  0
M  END
>  <CHROM.1>
-33.74910934,-98.80131133,-163.77465775,-172.63829221,-82.16292524,-174.39113653
172.16713001,57.49705559,-178.10732273,-136.51541000,119.52477004,-8.90795417
-7.85747000,8.60455194,2.52343419,-1.22922049,2.15598748

>  <Name>
1uts_lig

>  <RI>
0

>  <Rbt.Current_Directory>
/home/itssahil/PROJECTS/Mol_Feturizer/New_Systems/rnas/1uts

>  <Rbt.Executable>
rbdock ($Id: //depot/dev/client3/rdock/2013.1/src/exe/rbdock.cxx#4 $)

>  <Rbt.Library>
libRbt.so (2013.1, Build901 2013/11/27)

>  <Rbt.Parameter_File>
/export/apps/rDock/src/rDock_2013.1_src/data/scripts/dock_solv.prm

>  <Rbt.Receptor>
prm/blind_docking_80.prm

>  <SCORE>
-43.6344

>  <SCORE.INTER>
-45.7339

>  <SCORE.INTER.CONST>
1

>  <SCORE.INTER.POLAR>
-3.53747

>  <SCORE.INTER.ROT>
10

>  <SCORE.INTER.SOLV>
7.87851

>  <SCORE.INTER.VDW>
-31.5906

>  <SCORE.INTER.norm>
-1.52446

>  <SCORE.INTRA>
-0.31587

>  <SCORE.INTRA.DIHEDRAL>
-5.38681

>  <SCORE.INTRA.DIHEDRAL.0>
18.0451

>  <SCORE.INTRA.POLAR>
-0.565412

>  <SCORE.INTRA.POLAR.0>
-0.196815

>  <SCORE.INTRA.REPUL>
0

>  <SCORE.INTRA.REPUL.0>
0

>  <SCORE.INTRA.SOLV>
-0.176419

>  <SCORE.INTRA.SOLV.lig_0>
-14.7906

>  <SCORE.INTRA.VDW>
4.38815

>  <SCORE.INTRA.VDW.0>
-0.411701

>  <SCORE.INTRA.norm>
-0.010529

>  <SCORE.RESTR>
2.41544

>  <SCORE.RESTR.CAVITY>
2.41544

>  <SCORE.RESTR.norm>
0.0805148

>  <SCORE.SYSTEM>
0

>  <SCORE.SYSTEM.CONST>
0

>  <SCORE.SYSTEM.DIHEDRAL>
0

>  <SCORE.SYSTEM.SOLV>
0

>  <SCORE.SYSTEM.norm>
0

>  <SCORE.heavy>
30

>  <SCORE.norm>
-1.45448

>  <RMSD>
17.735

$$$$
1uts_lig
 OpenBabel11021811413D
libRbt.so/2013.1/901 2013/11/27
 30 33  0  0  0  0  0  0  0  0999 V2000
  -11.0982   -8.9634   12.9214 N   0  0  0  0  0  0  0  0  0  0  0  0
  -10.3300   -6.6763   12.4564 C   0  0  0  0  0  0  0  0  0  0  0  0
  -10.3866   -4.9933    7.4131 C   0  0  0  0  0  0  0  0  0  0  0  0
   -9.4456   -5.8261   11.5398 C   0  0  0  0  0  0  0  0  0  0  0  0
  -10.0802   -5.6879   10.2600 O   0  0  0  0  0  0  0  0  0  0  0  0
  -10.2615   -8.1406   12.0189 C   0  0  0  0  0  0  0  0  0  0  0  0
  -11.7819   -5.1449    7.8847 N   0  0  0  0  0  0  0  0  0  0  0  0
  -12.4957   -3.8463    7.7625 C   0  0  0  0  0  0  0  0  0  0  0  0
  -12.7057   -3.2380    9.1522 C   0  0  0  0  0  0  0  0  0  0  0  0
  -11.3932   -2.8880    9.7401 N   0  0  0  0  0  0  0  0  0  0  0  0
  -11.5803   -2.5048   11.1691 C   0  0  0  0  0  0  0  0  0  0  0  0
  -10.7933   -1.7596    8.9734 C   0  0  0  0  0  0  0  0  0  0  0  0
  -10.2194   -2.1368   11.7822 C   0  0  0  0  0  0  0  0  0  0  0  0
   -9.4322   -1.3878    9.5887 C   0  0  0  0  0  0  0  0  0  0  0  0
   -9.6195   -1.0076   11.0165 N   0  0  0  0  0  0  0  0  0  0  0  0
   -7.9382   -8.3855    8.7218 C   0  0  0  0  0  0  0  0  0  0  0  0
   -5.6870  -11.4318    3.4957 N   0  0  0  0  0  0  0  0  0  0  0  0
   -8.0741   -8.0961    7.3430 C   0  0  0  0  0  0  0  0  0  0  0  0
   -8.8694   -6.9956    6.9257 C   0  0  0  0  0  0  0  0  0  0  0  0
   -9.5270   -6.1819    7.8887 C   0  0  0  0  0  0  0  0  0  0  0  0
   -9.4017   -6.4854    9.2777 C   0  0  0  0  0  0  0  0  0  0  0  0
   -8.6018   -7.5863    9.6897 C   0  0  0  0  0  0  0  0  0  0  0  0
   -6.8111  -12.2542    3.2555 C   0  0  0  0  0  0  0  0  0  0  0  0
   -7.9012  -11.8700    4.0690 C   0  0  0  0  0  0  0  0  0  0  0  0
   -8.1182   -9.9836    5.7890 C   0  0  0  0  0  0  0  0  0  0  0  0
   -7.4240   -8.9037    6.3993 C   0  0  0  0  0  0  0  0  0  0  0  0
   -6.0720   -8.6402    6.0460 C   0  0  0  0  0  0  0  0  0  0  0  0
   -5.4170   -9.4539    5.0824 C   0  0  0  0  0  0  0  0  0  0  0  0
   -6.1225  -10.5309    4.4600 C   0  0  0  0  0  0  0  0  0  0  0  0
   -7.4599  -10.7936    4.8087 C   0  0  0  0  0  0  0  0  0  0  0  0
  1  6  1  0  0  0  0
  2  4  1  0  0  0  0
  3  7  1  0  0  0  0
  4  5  1  0  0  0  0
  6  2  1  0  0  0  0
  7  8  1  0  0  0  0
  8  9  1  0  0  0  0
  9 10  1  0  0  0  0
 10 11  1  0  0  0  0
 10 12  1  0  0  0  0
 11 13  1  0  0  0  0
 13 15  1  0  0  0  0
 14 12  1  0  0  0  0
 15 14  1  0  0  0  0
 16 18  2  0  0  0  0
 16 22  1  0  0  0  0
 17 23  1  0  0  0  0
 17 29  1  0  0  0  0
 18 19  1  0  0  0  0
 18 26  1  0  0  0  0
 19 20  2  0  0  0  0
 20  3  1  0  0  0  0
 20 21  1  0  0  0  0
 21  5  1  0  0  0  0
 21 22  2  0  0  0  0
 23 24  2  0  0  0  0
 24 30  1  0  0  0  0
 25 26  2  0  0  0  0
 25 30  1  0  0  0  0
 26 27  1  0  0  0  0
 27 28  2  0  0  0  0
 28 29  1  0  0  0  0
 29 30  2  0  0  0  0
M  END
>  <CHROM.1>
-53.01701029,73.40343136,164.09980787,-107.00707891,178.99625561,-107.31274029
65.75661663,-170.90373152,94.80185228,121.11724318,-158.26208484,-9.26441867
-6.60351512,8.36655443,2.96018984,1.15294700,-0.71335607

>  <Name>
1uts_lig

>  <RI>
0

>  <Rbt.Current_Directory>
/home/itssahil/PROJECTS/Mol_Feturizer/New_Systems/rnas/1uts

>  <Rbt.Executable>
rbdock ($Id: //depot/dev/client3/rdock/2013.1/src/exe/rbdock.cxx#4 $)

>  <Rbt.Library>
libRbt.so (2013.1, Build901 2013/11/27)

>  <Rbt.Parameter_File>
/export/apps/rDock/src/rDock_2013.1_src/data/scripts/dock_solv.prm

>  <Rbt.Receptor>
prm/blind_docking_80.prm

>  <SCORE>
-34.003

>  <SCORE.INTER>
-31.9526

>  <SCORE.INTER.CONST>
1

>  <SCORE.INTER.POLAR>
-1.74178

>  <SCORE.INTER.ROT>
10

>  <SCORE.INTER.SOLV>
7.9677

>  <SCORE.INTER.VDW>
-28.4184

>  <SCORE.INTER.norm>
-1.06509

>  <SCORE.INTRA>
-2.39884

>  <SCORE.INTRA.DIHEDRAL>
-0.61169

>  <SCORE.INTRA.DIHEDRAL.0>
18.0451

>  <SCORE.INTRA.POLAR>
-1.21802

>  <SCORE.INTRA.POLAR.0>
-0.196815

>  <SCORE.INTRA.REPUL>
0

>  <SCORE.INTRA.REPUL.0>
0

>  <SCORE.INTRA.SOLV>
0.334061

>  <SCORE.INTRA.SOLV.lig_0>
-14.7906

>  <SCORE.INTRA.VDW>
1.88123

>  <SCORE.INTRA.VDW.0>
-0.411701

>  <SCORE.INTRA.norm>
-0.0799613

>  <SCORE.RESTR>
0.348473

>  <SCORE.RESTR.CAVITY>
0.348473

>  <SCORE.RESTR.norm>
0.0116158

>  <SCORE.SYSTEM>
0

>  <SCORE.SYSTEM.CONST>
0

>  <SCORE.SYSTEM.DIHEDRAL>
0

>  <SCORE.SYSTEM.SOLV>
0

>  <SCORE.SYSTEM.norm>
0

>  <SCORE.heavy>
30

>  <SCORE.norm>
-1.13343

>  <RMSD>
17.738

$$$$
1uts_lig
 OpenBabel11021811413D
libRbt.so/2013.1/901 2013/11/27
 30 33  0  0  0  0  0  0  0  0999 V2000
  -10.1128   -9.7792   16.0704 N   0  0  0  0  0  0  0  0  0  0  0  0
   -9.6642   -8.4195   14.0736 C   0  0  0  0  0  0  0  0  0  0  0  0
   -8.0262   -9.1484    9.1933 C   0  0  0  0  0  0  0  0  0  0  0  0
  -10.2391   -8.0015   12.7172 C   0  0  0  0  0  0  0  0  0  0  0  0
   -9.2453   -8.1925   11.6995 O   0  0  0  0  0  0  0  0  0  0  0  0
  -10.7327   -9.1665   14.8738 C   0  0  0  0  0  0  0  0  0  0  0  0
   -6.8716   -8.6951    8.3848 N   0  0  0  0  0  0  0  0  0  0  0  0
   -7.1980   -8.8073    6.9385 C   0  0  0  0  0  0  0  0  0  0  0  0
   -5.9671   -8.4492    6.1006 C   0  0  0  0  0  0  0  0  0  0  0  0
   -6.0661   -9.1022    4.7759 N   0  0  0  0  0  0  0  0  0  0  0  0
   -7.2420   -8.5518    4.0423 C   0  0  0  0  0  0  0  0  0  0  0  0
   -6.2102  -10.5740    4.9600 C   0  0  0  0  0  0  0  0  0  0  0  0
   -7.3503   -9.2306    2.6672 C   0  0  0  0  0  0  0  0  0  0  0  0
   -6.3224  -11.2544    3.5837 C   0  0  0  0  0  0  0  0  0  0  0  0
   -7.4957  -10.7025    2.8507 N   0  0  0  0  0  0  0  0  0  0  0  0
  -11.1318   -6.0550    9.2289 C   0  0  0  0  0  0  0  0  0  0  0  0
  -12.1166   -4.2736    3.0689 N   0  0  0  0  0  0  0  0  0  0  0  0
  -10.5586   -6.4739    8.0044 C   0  0  0  0  0  0  0  0  0  0  0  0
   -9.5524   -7.4763    8.0000 C   0  0  0  0  0  0  0  0  0  0  0  0
   -9.1211   -8.0628    9.2215 C   0  0  0  0  0  0  0  0  0  0  0  0
   -9.6888   -7.6274   10.4565 C   0  0  0  0  0  0  0  0  0  0  0  0
  -10.6979   -6.6257   10.4545 C   0  0  0  0  0  0  0  0  0  0  0  0
  -11.0501   -4.7939    2.3010 C   0  0  0  0  0  0  0  0  0  0  0  0
  -10.1633   -5.5411    3.1090 C   0  0  0  0  0  0  0  0  0  0  0  0
  -10.2352   -6.0777    5.6132 C   0  0  0  0  0  0  0  0  0  0  0  0
  -10.9879   -5.8900    6.8043 C   0  0  0  0  0  0  0  0  0  0  0  0
  -12.1800   -5.1152    6.7748 C   0  0  0  0  0  0  0  0  0  0  0  0
  -12.6190   -4.5315    5.5557 C   0  0  0  0  0  0  0  0  0  0  0  0
  -11.8670   -4.7338    4.3562 C   0  0  0  0  0  0  0  0  0  0  0  0
  -10.6871   -5.4995    4.3836 C   0  0  0  0  0  0  0  0  0  0  0  0
  1  6  1  0  0  0  0
  2  4  1  0  0  0  0
  3  7  1  0  0  0  0
  4  5  1  0  0  0  0
  6  2  1  0  0  0  0
  7  8  1  0  0  0  0
  8  9  1  0  0  0  0
  9 10  1  0  0  0  0
 10 11  1  0  0  0  0
 10 12  1  0  0  0  0
 11 13  1  0  0  0  0
 13 15  1  0  0  0  0
 14 12  1  0  0  0  0
 15 14  1  0  0  0  0
 16 18  2  0  0  0  0
 16 22  1  0  0  0  0
 17 23  1  0  0  0  0
 17 29  1  0  0  0  0
 18 19  1  0  0  0  0
 18 26  1  0  0  0  0
 19 20  2  0  0  0  0
 20  3  1  0  0  0  0
 20 21  1  0  0  0  0
 21  5  1  0  0  0  0
 21 22  2  0  0  0  0
 23 24  2  0  0  0  0
 24 30  1  0  0  0  0
 25 26  2  0  0  0  0
 25 30  1  0  0  0  0
 26 27  1  0  0  0  0
 27 28  2  0  0  0  0
 28 29  1  0  0  0  0
 29 30  2  0  0  0  0
M  END
>  <CHROM.1>
47.49942406,-139.75938702,-76.75373117,-171.57402166,169.86345984,-175.36413384
155.25104494,64.14166007,166.27141995,49.62090156,-158.74291556,-9.29714258
-7.66696383,7.41659671,-1.70234737,0.75895592,-1.35950852

>  <Name>
1uts_lig

>  <RI>
0

>  <Rbt.Current_Directory>
/home/itssahil/PROJECTS/Mol_Feturizer/New_Systems/rnas/1uts

>  <Rbt.Executable>
rbdock ($Id: //depot/dev/client3/rdock/2013.1/src/exe/rbdock.cxx#4 $)

>  <Rbt.Library>
libRbt.so (2013.1, Build901 2013/11/27)

>  <Rbt.Parameter_File>
/export/apps/rDock/src/rDock_2013.1_src/data/scripts/dock_solv.prm

>  <Rbt.Receptor>
prm/blind_docking_100.prm

>  <SCORE>
-27.2975

>  <SCORE.INTER>
-37.1731

>  <SCORE.INTER.CONST>
1

>  <SCORE.INTER.POLAR>
-3.14023

>  <SCORE.INTER.ROT>
10

>  <SCORE.INTER.SOLV>
11.134

>  <SCORE.INTER.VDW>
-28.2927

>  <SCORE.INTER.norm>
-1.2391

>  <SCORE.INTRA>
4.11307

>  <SCORE.INTRA.DIHEDRAL>
-8.40181

>  <SCORE.INTRA.DIHEDRAL.0>
18.0451

>  <SCORE.INTRA.POLAR>
0.196815

>  <SCORE.INTRA.POLAR.0>
-0.196815

>  <SCORE.INTRA.REPUL>
0

>  <SCORE.INTRA.REPUL.0>
0

>  <SCORE.INTRA.SOLV>
-0.575038

>  <SCORE.INTRA.SOLV.lig_0>
-14.7906

>  <SCORE.INTRA.VDW>
7.93232

>  <SCORE.INTRA.VDW.0>
-0.411701

>  <SCORE.INTRA.norm>
0.137102

>  <SCORE.RESTR>
5.76259

>  <SCORE.RESTR.CAVITY>
5.76259

>  <SCORE.RESTR.norm>
0.192086

>  <SCORE.SYSTEM>
0

>  <SCORE.SYSTEM.CONST>
0

>  <SCORE.SYSTEM.DIHEDRAL>
0

>  <SCORE.SYSTEM.SOLV>
0

>  <SCORE.SYSTEM.norm>
0

>  <SCORE.heavy>
30

>  <SCORE.norm>
-0.909916

>  <RMSD>
17.744

$$$$
1uts_lig
 OpenBabel11021811413D
libRbt.so/2013.1/901 2013/11/27
 30 33  0  0  0  0  0  0  0  0999 V2000
  -10.4468   -7.9274   13.7928 N   0  0  0  0  0  0  0  0  0  0  0  0
  -11.3900   -7.0524   11.6995 C   0  0  0  0  0  0  0  0  0  0  0  0
  -10.5213   -4.9106    7.0936 C   0  0  0  0  0  0  0  0  0  0  0  0
  -10.3690   -5.9732   11.3278 C   0  0  0  0  0  0  0  0  0  0  0  0
  -10.5709   -5.5764    9.9634 O   0  0  0  0  0  0  0  0  0  0  0  0
  -10.6717   -8.2299   12.3612 C   0  0  0  0  0  0  0  0  0  0  0  0
  -11.9389   -5.0429    7.4998 N   0  0  0  0  0  0  0  0  0  0  0  0
  -12.6142   -3.7220    7.3991 C   0  0  0  0  0  0  0  0  0  0  0  0
  -12.7795   -3.1171    8.7963 C   0  0  0  0  0  0  0  0  0  0  0  0
  -11.4466   -2.8004    9.3568 N   0  0  0  0  0  0  0  0  0  0  0  0
  -11.5624   -2.6252   10.8332 C   0  0  0  0  0  0  0  0  0  0  0  0
  -10.9278   -1.5547    8.7243 C   0  0  0  0  0  0  0  0  0  0  0  0
  -10.1804   -2.2923   11.4185 C   0  0  0  0  0  0  0  0  0  0  0  0
   -9.5456   -1.2183    9.3124 C   0  0  0  0  0  0  0  0  0  0  0  0
   -9.6616   -1.0459   10.7872 N   0  0  0  0  0  0  0  0  0  0  0  0
   -8.1234   -8.1814    8.7570 C   0  0  0  0  0  0  0  0  0  0  0  0
   -5.0489  -11.1799    3.9508 N   0  0  0  0  0  0  0  0  0  0  0  0
   -8.0850   -7.9053    7.3693 C   0  0  0  0  0  0  0  0  0  0  0  0
   -8.8649   -6.8443    6.8368 C   0  0  0  0  0  0  0  0  0  0  0  0
   -9.6817   -6.0565    7.6936 C   0  0  0  0  0  0  0  0  0  0  0  0
   -9.7315   -6.3471    9.0901 C   0  0  0  0  0  0  0  0  0  0  0  0
   -8.9463   -7.4085    9.6180 C   0  0  0  0  0  0  0  0  0  0  0  0
   -6.0116  -12.2017    3.7868 C   0  0  0  0  0  0  0  0  0  0  0  0
   -7.1768  -11.9231    4.5367 C   0  0  0  0  0  0  0  0  0  0  0  0
   -7.7622   -9.9280    6.0336 C   0  0  0  0  0  0  0  0  0  0  0  0
   -7.2784   -8.6872    6.5306 C   0  0  0  0  0  0  0  0  0  0  0  0
   -5.9784   -8.2377    6.1700 C   0  0  0  0  0  0  0  0  0  0  0  0
   -5.1654   -9.0269    5.3122 C   0  0  0  0  0  0  0  0  0  0  0  0
   -5.6603  -10.2680    4.8028 C   0  0  0  0  0  0  0  0  0  0  0  0
   -6.9460  -10.7147    5.1589 C   0  0  0  0  0  0  0  0  0  0  0  0
  1  6  1  0  0  0  0
  2  4  1  0  0  0  0
  3  7  1  0  0  0  0
  4  5  1  0  0  0  0
  6  2  1  0  0  0  0
  7  8  1  0  0  0  0
  8  9  1  0  0  0  0
  9 10  1  0  0  0  0
 10 11  1  0  0  0  0
 10 12  1  0  0  0  0
 11 13  1  0  0  0  0
 13 15  1  0  0  0  0
 14 12  1  0  0  0  0
 15 14  1  0  0  0  0
 16 18  2  0  0  0  0
 16 22  1  0  0  0  0
 17 23  1  0  0  0  0
 17 29  1  0  0  0  0
 18 19  1  0  0  0  0
 18 26  1  0  0  0  0
 19 20  2  0  0  0  0
 20  3  1  0  0  0  0
 20 21  1  0  0  0  0
 21  5  1  0  0  0  0
 21 22  2  0  0  0  0
 23 24  2  0  0  0  0
 24 30  1  0  0  0  0
 25 26  2  0  0  0  0
 25 30  1  0  0  0  0
 26 27  1  0  0  0  0
 27 28  2  0  0  0  0
 28 29  1  0  0  0  0
 29 30  2  0  0  0  0
M  END
>  <CHROM.1>
-51.73506399,130.64617586,157.66966939,-92.83754563,82.12845406,-103.33739715
66.27617477,-162.33260706,83.63220269,127.29930571,-175.03403547,-9.26838486
-6.47127664,8.33225002,2.97075938,1.07236913,-0.75208500

>  <Name>
1uts_lig

>  <RI>
0

>  <Rbt.Current_Directory>
/home/itssahil/PROJECTS/Mol_Feturizer/New_Systems/rnas/1uts

>  <Rbt.Executable>
rbdock ($Id: //depot/dev/client3/rdock/2013.1/src/exe/rbdock.cxx#4 $)

>  <Rbt.Library>
libRbt.so (2013.1, Build901 2013/11/27)

>  <Rbt.Parameter_File>
/export/apps/rDock/src/rDock_2013.1_src/data/scripts/dock_solv.prm

>  <Rbt.Receptor>
prm/blind_docking_100.prm

>  <SCORE>
-19.5322

>  <SCORE.INTER>
-21.789

>  <SCORE.INTER.CONST>
1

>  <SCORE.INTER.POLAR>
-1.3054

>  <SCORE.INTER.ROT>
10

>  <SCORE.INTER.SOLV>
8.87583

>  <SCORE.INTER.VDW>
-23.3999

>  <SCORE.INTER.norm>
-0.726301

>  <SCORE.INTRA>
0.0117404

>  <SCORE.INTRA.DIHEDRAL>
3.38376

>  <SCORE.INTRA.DIHEDRAL.0>
18.0451

>  <SCORE.INTRA.POLAR>
-1.09741

>  <SCORE.INTRA.POLAR.0>
-0.196815

>  <SCORE.INTRA.REPUL>
0

>  <SCORE.INTRA.REPUL.0>
0

>  <SCORE.INTRA.SOLV>
0.458652

>  <SCORE.INTRA.SOLV.lig_0>
-14.7906

>  <SCORE.INTRA.VDW>
1.82174

>  <SCORE.INTRA.VDW.0>
-0.411701

>  <SCORE.INTRA.norm>
0.000391346

>  <SCORE.RESTR>
2.24512

>  <SCORE.RESTR.CAVITY>
2.24512

>  <SCORE.RESTR.norm>
0.0748372

>  <SCORE.SYSTEM>
0

>  <SCORE.SYSTEM.CONST>
0

>  <SCORE.SYSTEM.DIHEDRAL>
0

>  <SCORE.SYSTEM.SOLV>
0

>  <SCORE.SYSTEM.norm>
0

>  <SCORE.heavy>
30

>  <SCORE.norm>
-0.651072

>  <RMSD>
17.749

$$$$
1uts_lig
 OpenBabel11021811413D
libRbt.so/2013.1/901 2013/11/27
 30 33  0  0  0  0  0  0  0  0999 V2000
  -10.1991   -0.9217    8.5521 N   0  0  0  0  0  0  0  0  0  0  0  0
  -10.8209   -3.1905    9.2614 C   0  0  0  0  0  0  0  0  0  0  0  0
  -11.1935   -6.9691    7.9101 C   0  0  0  0  0  0  0  0  0  0  0  0
   -9.8323   -3.8317    8.2831 C   0  0  0  0  0  0  0  0  0  0  0  0
  -10.5276   -4.2190    7.0889 O   0  0  0  0  0  0  0  0  0  0  0  0
  -10.2828   -1.8326    9.7160 C   0  0  0  0  0  0  0  0  0  0  0  0
  -10.5662   -6.9483    9.2510 N   0  0  0  0  0  0  0  0  0  0  0  0
   -9.4405   -7.9189    9.2924 C   0  0  0  0  0  0  0  0  0  0  0  0
   -8.6500   -7.7400   10.5919 C   0  0  0  0  0  0  0  0  0  0  0  0
   -9.5904   -7.6335   11.7299 N   0  0  0  0  0  0  0  0  0  0  0  0
   -8.8214   -7.3795   12.9821 C   0  0  0  0  0  0  0  0  0  0  0  0
  -10.3706   -8.8979   11.8462 C   0  0  0  0  0  0  0  0  0  0  0  0
   -9.7948   -7.2721   14.1670 C   0  0  0  0  0  0  0  0  0  0  0  0
  -11.3430   -8.7930   13.0348 C   0  0  0  0  0  0  0  0  0  0  0  0
  -10.5745   -8.5369   14.2846 N   0  0  0  0  0  0  0  0  0  0  0  0
   -8.2021   -6.1327    4.8171 C   0  0  0  0  0  0  0  0  0  0  0  0
   -5.6341  -11.7629    2.9416 N   0  0  0  0  0  0  0  0  0  0  0  0
   -8.4801   -7.4679    5.1956 C   0  0  0  0  0  0  0  0  0  0  0  0
   -9.4503   -7.7319    6.1989 C   0  0  0  0  0  0  0  0  0  0  0  0
  -10.1455   -6.6594    6.8221 C   0  0  0  0  0  0  0  0  0  0  0  0
   -9.8519   -5.3130    6.4505 C   0  0  0  0  0  0  0  0  0  0  0  0
   -8.8820   -5.0550    5.4434 C   0  0  0  0  0  0  0  0  0  0  0  0
   -4.9053  -12.1168    4.0997 C   0  0  0  0  0  0  0  0  0  0  0  0
   -5.2154  -11.2537    5.1752 C   0  0  0  0  0  0  0  0  0  0  0  0
   -6.8410   -9.2785    5.3162 C   0  0  0  0  0  0  0  0  0  0  0  0
   -7.7896   -8.5201    4.5777 C   0  0  0  0  0  0  0  0  0  0  0  0
   -8.0419   -8.8348    3.2141 C   0  0  0  0  0  0  0  0  0  0  0  0
   -7.3480   -9.9075    2.5916 C   0  0  0  0  0  0  0  0  0  0  0  0
   -6.4044  -10.6774    3.3410 C   0  0  0  0  0  0  0  0  0  0  0  0
   -6.1531  -10.3672    4.6901 C   0  0  0  0  0  0  0  0  0  0  0  0
  1  6  1  0  0  0  0
  2  4  1  0  0  0  0
  3  7  1  0  0  0  0
  4  5  1  0  0  0  0
  6  2  1  0  0  0  0
  7  8  1  0  0  0  0
  8  9  1  0  0  0  0
  9 10  1  0  0  0  0
 10 11  1  0  0  0  0
 10 12  1  0  0  0  0
 11 13  1  0  0  0  0
 13 15  1  0  0  0  0
 14 12  1  0  0  0  0
 15 14  1  0  0  0  0
 16 18  2  0  0  0  0
 16 22  1  0  0  0  0
 17 23  1  0  0  0  0
 17 29  1  0  0  0  0
 18 19  1  0  0  0  0
 18 26  1  0  0  0  0
 19 20  2  0  0  0  0
 20  3  1  0  0  0  0
 20 21  1  0  0  0  0
 21  5  1  0  0  0  0
 21 22  2  0  0  0  0
 23 24  2  0  0  0  0
 24 30  1  0  0  0  0
 25 26  2  0  0  0  0
 25 30  1  0  0  0  0
 26 27  1  0  0  0  0
 27 28  2  0  0  0  0
 28 29  1  0  0  0  0
 29 30  2  0  0  0  0
M  END
>  <CHROM.1>
15.38534892,-127.91674056,-56.97612813,-153.50025590,63.81311841,170.88334153
45.76756619,-176.71171154,110.55253743,92.08801518,87.27678853,-8.92596157
-7.33931712,7.80296102,2.77160951,-1.13086904,2.21986972

>  <Name>
1uts_lig

>  <RI>
0

>  <Rbt.Current_Directory>
/home/itssahil/PROJECTS/Mol_Feturizer/New_Systems/rnas/1uts

>  <Rbt.Executable>
rbdock ($Id: //depot/dev/client3/rdock/2013.1/src/exe/rbdock.cxx#4 $)

>  <Rbt.Library>
libRbt.so (2013.1, Build901 2013/11/27)

>  <Rbt.Parameter_File>
/export/apps/rDock/src/rDock_2013.1_src/data/scripts/dock_solv.prm

>  <Rbt.Receptor>
prm/blind_docking_60.prm

>  <SCORE>
-26.9515

>  <SCORE.INTER>
-35.6266

>  <SCORE.INTER.CONST>
1

>  <SCORE.INTER.POLAR>
-2.33674

>  <SCORE.INTER.ROT>
10

>  <SCORE.INTER.SOLV>
9.86927

>  <SCORE.INTER.VDW>
-29.5184

>  <SCORE.INTER.norm>
-1.18755

>  <SCORE.INTRA>
4.11174

>  <SCORE.INTRA.DIHEDRAL>
3.99792

>  <SCORE.INTRA.DIHEDRAL.0>
18.0451

>  <SCORE.INTRA.POLAR>
0.196815

>  <SCORE.INTRA.POLAR.0>
-0.196815

>  <SCORE.INTRA.REPUL>
0

>  <SCORE.INTRA.REPUL.0>
0

>  <SCORE.INTRA.SOLV>
0.168951

>  <SCORE.INTRA.SOLV.lig_0>
-14.7906

>  <SCORE.INTRA.VDW>
1.35914

>  <SCORE.INTRA.VDW.0>
-0.411701

>  <SCORE.INTRA.norm>
0.137058

>  <SCORE.RESTR>
4.56335

>  <SCORE.RESTR.CAVITY>
4.56335

>  <SCORE.RESTR.norm>
0.152112

>  <SCORE.SYSTEM>
0

>  <SCORE.SYSTEM.CONST>
0

>  <SCORE.SYSTEM.DIHEDRAL>
0

>  <SCORE.SYSTEM.SOLV>
0

>  <SCORE.SYSTEM.norm>
0

>  <SCORE.heavy>
30

>  <SCORE.norm>
-0.898385

>  <RMSD>
17.767

$$$$
1uts_lig
 OpenBabel11021811413D
libRbt.so/2013.1/901 2013/11/27
 30 33  0  0  0  0  0  0  0  0999 V2000
  -10.0364   -8.9958   16.0480 N   0  0  0  0  0  0  0  0  0  0  0  0
  -10.9264   -8.2093   13.8970 C   0  0  0  0  0  0  0  0  0  0  0  0
  -11.8468   -6.9861    9.2356 C   0  0  0  0  0  0  0  0  0  0  0  0
  -10.8269   -8.5400   12.4050 C   0  0  0  0  0  0  0  0  0  0  0  0
  -10.2909   -7.4096   11.7015 O   0  0  0  0  0  0  0  0  0  0  0  0
   -9.6993   -8.7600   14.6259 C   0  0  0  0  0  0  0  0  0  0  0  0
  -11.8490   -5.7743   10.0861 N   0  0  0  0  0  0  0  0  0  0  0  0
  -12.8420   -4.7981    9.5646 C   0  0  0  0  0  0  0  0  0  0  0  0
  -12.7069   -3.4704   10.3160 C   0  0  0  0  0  0  0  0  0  0  0  0
  -11.3169   -2.9760   10.1963 N   0  0  0  0  0  0  0  0  0  0  0  0
  -10.6312   -3.1108   11.5137 C   0  0  0  0  0  0  0  0  0  0  0  0
  -11.3352   -1.5502    9.7630 C   0  0  0  0  0  0  0  0  0  0  0  0
   -9.1882   -2.5945   11.3943 C   0  0  0  0  0  0  0  0  0  0  0  0
   -9.8907   -1.0310    9.6467 C   0  0  0  0  0  0  0  0  0  0  0  0
   -9.2059   -1.1682   10.9621 N   0  0  0  0  0  0  0  0  0  0  0  0
   -7.8789   -8.8482    9.1828 C   0  0  0  0  0  0  0  0  0  0  0  0
   -6.5773  -10.5189    3.0640 N   0  0  0  0  0  0  0  0  0  0  0  0
   -8.6016   -8.6791    7.9777 C   0  0  0  0  0  0  0  0  0  0  0  0
   -9.8871   -8.0754    8.0020 C   0  0  0  0  0  0  0  0  0  0  0  0
  -10.4490   -7.6375    9.2325 C   0  0  0  0  0  0  0  0  0  0  0  0
   -9.7255   -7.8238   10.4486 C   0  0  0  0  0  0  0  0  0  0  0  0
   -8.4378   -8.4260   10.4179 C   0  0  0  0  0  0  0  0  0  0  0  0
   -7.6800  -11.3307    2.7135 C   0  0  0  0  0  0  0  0  0  0  0  0
   -8.6711  -11.2990    3.7206 C   0  0  0  0  0  0  0  0  0  0  0  0
   -8.7546  -10.0253    5.9421 C   0  0  0  0  0  0  0  0  0  0  0  0
   -8.0417   -9.1146    6.7684 C   0  0  0  0  0  0  0  0  0  0  0  0
   -6.7635   -8.6411    6.3632 C   0  0  0  0  0  0  0  0  0  0  0  0
   -6.2010   -9.0762    5.1328 C   0  0  0  0  0  0  0  0  0  0  0  0
   -6.9268   -9.9817    4.2970 C   0  0  0  0  0  0  0  0  0  0  0  0
   -8.1913  -10.4517    4.6966 C   0  0  0  0  0  0  0  0  0  0  0  0
  1  6  1  0  0  0  0
  2  4  1  0  0  0  0
  3  7  1  0  0  0  0
  4  5  1  0  0  0  0
  6  2  1  0  0  0  0
  7  8  1  0  0  0  0
  8  9  1  0  0  0  0
  9 10  1  0  0  0  0
 10 11  1  0  0  0  0
 10 12  1  0  0  0  0
 11 13  1  0  0  0  0
 13 15  1  0  0  0  0
 14 12  1  0  0  0  0
 15 14  1  0  0  0  0
 16 18  2  0  0  0  0
 16 22  1  0  0  0  0
 17 23  1  0  0  0  0
 17 29  1  0  0  0  0
 18 19  1  0  0  0  0
 18 26  1  0  0  0  0
 19 20  2  0  0  0  0
 20  3  1  0  0  0  0
 20 21  1  0  0  0  0
 21  5  1  0  0  0  0
 21 22  2  0  0  0  0
 23 24  2  0  0  0  0
 24 30  1  0  0  0  0
 25 26  2  0  0  0  0
 25 30  1  0  0  0  0
 26 27  1  0  0  0  0
 27 28  2  0  0  0  0
 28 29  1  0  0  0  0
 29 30  2  0  0  0  0
M  END
>  <CHROM.1>
-166.89739068,-96.88487693,150.03330818,158.46718514,-154.93063494,-171.95895515
56.33008008,-108.72351188,124.60573041,-135.13727474,101.06402637,-9.57597928
-7.05506828,9.14986544,-3.11384636,1.23623965,-0.71893432

>  <Name>
1uts_lig

>  <RI>
0

>  <Rbt.Current_Directory>
/home/itssahil/PROJECTS/Mol_Feturizer/New_Systems/rnas/1uts

>  <Rbt.Executable>
rbdock ($Id: //depot/dev/client3/rdock/2013.1/src/exe/rbdock.cxx#4 $)

>  <Rbt.Library>
libRbt.so (2013.1, Build901 2013/11/27)

>  <Rbt.Parameter_File>
/export/apps/rDock/src/rDock_2013.1_src/data/scripts/dock_solv.prm

>  <Rbt.Receptor>
prm/blind_docking_80.prm

>  <SCORE>
-32.955

>  <SCORE.INTER>
-34.6609

>  <SCORE.INTER.CONST>
1

>  <SCORE.INTER.POLAR>
-2.26862

>  <SCORE.INTER.ROT>
10

>  <SCORE.INTER.SOLV>
9.07856

>  <SCORE.INTER.VDW>
-28.8381

>  <SCORE.INTER.norm>
-1.15536

>  <SCORE.INTRA>
1.59466

>  <SCORE.INTRA.DIHEDRAL>
4.15643

>  <SCORE.INTRA.DIHEDRAL.0>
18.0451

>  <SCORE.INTRA.POLAR>
0.177542

>  <SCORE.INTRA.POLAR.0>
-0.196815

>  <SCORE.INTRA.REPUL>
0

>  <SCORE.INTRA.REPUL.0>
0

>  <SCORE.INTRA.SOLV>
-0.00313513

>  <SCORE.INTRA.SOLV.lig_0>
-14.7906

>  <SCORE.INTRA.VDW>
-1.08563

>  <SCORE.INTRA.VDW.0>
-0.411701

>  <SCORE.INTRA.norm>
0.0531553

>  <SCORE.RESTR>
0.111201

>  <SCORE.RESTR.CAVITY>
0.111201

>  <SCORE.RESTR.norm>
0.0037067

>  <SCORE.SYSTEM>
0

>  <SCORE.SYSTEM.CONST>
0

>  <SCORE.SYSTEM.DIHEDRAL>
0

>  <SCORE.SYSTEM.SOLV>
0

>  <SCORE.SYSTEM.norm>
0

>  <SCORE.heavy>
30

>  <SCORE.norm>
-1.0985

>  <RMSD>
17.768

$$$$
1uts_lig
 OpenBabel11021811413D
libRbt.so/2013.1/901 2013/11/27
 30 33  0  0  0  0  0  0  0  0999 V2000
   -7.1601   -9.5264    1.5150 N   0  0  0  0  0  0  0  0  0  0  0  0
   -8.1357   -9.5142    3.7700 C   0  0  0  0  0  0  0  0  0  0  0  0
   -8.8715   -5.6995    5.4547 C   0  0  0  0  0  0  0  0  0  0  0  0
   -7.8803   -8.0046    3.8013 C   0  0  0  0  0  0  0  0  0  0  0  0
   -6.8428   -7.7167    4.7502 O   0  0  0  0  0  0  0  0  0  0  0  0
   -8.3183   -9.9723    2.3219 C   0  0  0  0  0  0  0  0  0  0  0  0
  -10.1654   -5.1397    5.9068 N   0  0  0  0  0  0  0  0  0  0  0  0
   -9.9533   -4.3016    7.1165 C   0  0  0  0  0  0  0  0  0  0  0  0
  -11.2004   -4.3486    8.0043 C   0  0  0  0  0  0  0  0  0  0  0  0
  -10.9865   -3.5017    9.1992 N   0  0  0  0  0  0  0  0  0  0  0  0
  -10.9188   -2.0712    8.7832 C   0  0  0  0  0  0  0  0  0  0  0  0
   -9.7207   -3.9079    9.8727 C   0  0  0  0  0  0  0  0  0  0  0  0
  -10.6929   -1.1887   10.0215 C   0  0  0  0  0  0  0  0  0  0  0  0
   -9.4915   -3.0224   11.1108 C   0  0  0  0  0  0  0  0  0  0  0  0
   -9.4264   -1.5937   10.6948 N   0  0  0  0  0  0  0  0  0  0  0  0
   -7.4317   -8.6520    8.3571 C   0  0  0  0  0  0  0  0  0  0  0  0
  -10.4185   -7.8969   13.9834 N   0  0  0  0  0  0  0  0  0  0  0  0
   -8.3943   -7.6879    8.7407 C   0  0  0  0  0  0  0  0  0  0  0  0
   -8.8562   -6.7338    7.7954 C   0  0  0  0  0  0  0  0  0  0  0  0
   -8.3571   -6.7458    6.4640 C   0  0  0  0  0  0  0  0  0  0  0  0
   -7.3744   -7.7085    6.0838 C   0  0  0  0  0  0  0  0  0  0  0  0
   -6.9180   -8.6632    7.0335 C   0  0  0  0  0  0  0  0  0  0  0  0
  -11.1310   -9.1101   13.8477 C   0  0  0  0  0  0  0  0  0  0  0  0
  -11.0094   -9.6233   12.5364 C   0  0  0  0  0  0  0  0  0  0  0  0
   -9.7273   -8.7307   10.5057 C   0  0  0  0  0  0  0  0  0  0  0  0
   -8.8807   -7.6814   10.0556 C   0  0  0  0  0  0  0  0  0  0  0  0
   -8.5227   -6.6294   10.9429 C   0  0  0  0  0  0  0  0  0  0  0  0
   -9.0090   -6.6287   12.2783 C   0  0  0  0  0  0  0  0  0  0  0  0
   -9.8492   -7.6931   12.7322 C   0  0  0  0  0  0  0  0  0  0  0  0
  -10.2050   -8.7344   11.8556 C   0  0  0  0  0  0  0  0  0  0  0  0
  1  6  1  0  0  0  0
  2  4  1  0  0  0  0
  3  7  1  0  0  0  0
  4  5  1  0  0  0  0
  6  2  1  0  0  0  0
  7  8  1  0  0  0  0
  8  9  1  0  0  0  0
  9 10  1  0  0  0  0
 10 11  1  0  0  0  0
 10 12  1  0  0  0  0
 11 13  1  0  0  0  0
 13 15  1  0  0  0  0
 14 12  1  0  0  0  0
 15 14  1  0  0  0  0
 16 18  2  0  0  0  0
 16 22  1  0  0  0  0
 17 23  1  0  0  0  0
 17 29  1  0  0  0  0
 18 19  1  0  0  0  0
 18 26  1  0  0  0  0
 19 20  2  0  0  0  0
 20  3  1  0  0  0  0
 20 21  1  0  0  0  0
 21  5  1  0  0  0  0
 21 22  2  0  0  0  0
 23 24  2  0  0  0  0
 24 30  1  0  0  0  0
 25 26  2  0  0  0  0
 25 30  1  0  0  0  0
 26 27  1  0  0  0  0
 27 28  2  0  0  0  0
 28 29  1  0  0  0  0
 29 30  2  0  0  0  0
M  END
>  <CHROM.1>
-70.19740082,-138.05591628,69.09790279,-80.07228755,53.59973604,-149.45705930
-179.44855192,67.68402614,-69.91200000,-20.28296601,-63.37802922,-9.19462573
-6.54060926,8.40189567,-0.34110836,-1.27169490,2.42070260

>  <Name>
1uts_lig

>  <RI>
0

>  <Rbt.Current_Directory>
/home/itssahil/PROJECTS/Mol_Feturizer/New_Systems/rnas/1uts

>  <Rbt.Executable>
rbdock ($Id: //depot/dev/client3/rdock/2013.1/src/exe/rbdock.cxx#4 $)

>  <Rbt.Library>
libRbt.so (2013.1, Build901 2013/11/27)

>  <Rbt.Parameter_File>
/export/apps/rDock/src/rDock_2013.1_src/data/scripts/dock_solv.prm

>  <Rbt.Receptor>
prm/blind_docking_60.prm

>  <SCORE>
-7.33409

>  <SCORE.INTER>
-17.6388

>  <SCORE.INTER.CONST>
1

>  <SCORE.INTER.POLAR>
-0.740206

>  <SCORE.INTER.ROT>
10

>  <SCORE.INTER.SOLV>
8.2309

>  <SCORE.INTER.VDW>
-22.3021

>  <SCORE.INTER.norm>
-0.58796

>  <SCORE.INTRA>
6.82223

>  <SCORE.INTRA.DIHEDRAL>
-0.465464

>  <SCORE.INTRA.DIHEDRAL.0>
18.0451

>  <SCORE.INTRA.POLAR>
0.196815

>  <SCORE.INTRA.POLAR.0>
-0.196815

>  <SCORE.INTRA.REPUL>
0

>  <SCORE.INTRA.REPUL.0>
0

>  <SCORE.INTRA.SOLV>
-0.203762

>  <SCORE.INTRA.SOLV.lig_0>
-14.7906

>  <SCORE.INTRA.VDW>
6.48767

>  <SCORE.INTRA.VDW.0>
-0.411701

>  <SCORE.INTRA.norm>
0.227408

>  <SCORE.RESTR>
3.48246

>  <SCORE.RESTR.CAVITY>
3.48246

>  <SCORE.RESTR.norm>
0.116082

>  <SCORE.SYSTEM>
0

>  <SCORE.SYSTEM.CONST>
0

>  <SCORE.SYSTEM.DIHEDRAL>
0

>  <SCORE.SYSTEM.SOLV>
0

>  <SCORE.SYSTEM.norm>
0

>  <SCORE.heavy>
30

>  <SCORE.norm>
-0.24447

>  <RMSD>
17.769

$$$$
1uts_lig
 OpenBabel11021811413D
libRbt.so/2013.1/901 2013/11/27
 30 33  0  0  0  0  0  0  0  0999 V2000
   -9.9101   -8.7177   15.8768 N   0  0  0  0  0  0  0  0  0  0  0  0
  -10.9031   -8.0855   13.7201 C   0  0  0  0  0  0  0  0  0  0  0  0
   -8.5997   -6.4463   11.0317 C   0  0  0  0  0  0  0  0  0  0  0  0
  -10.8557   -8.4999   12.2466 C   0  0  0  0  0  0  0  0  0  0  0  0
   -9.5719   -9.0705   11.9535 O   0  0  0  0  0  0  0  0  0  0  0  0
  -10.4250   -9.2467   14.5937 C   0  0  0  0  0  0  0  0  0  0  0  0
   -9.0014   -5.1881   10.3627 N   0  0  0  0  0  0  0  0  0  0  0  0
  -10.2882   -5.3907    9.6458 C   0  0  0  0  0  0  0  0  0  0  0  0
  -10.2353   -4.6979    8.2810 C   0  0  0  0  0  0  0  0  0  0  0  0
  -10.9564   -3.4075    8.3552 N   0  0  0  0  0  0  0  0  0  0  0  0
  -10.3294   -2.5527    9.4041 C   0  0  0  0  0  0  0  0  0  0  0  0
  -12.3892   -3.6600    8.6781 C   0  0  0  0  0  0  0  0  0  0  0  0
  -11.0784   -1.2128    9.4868 C   0  0  0  0  0  0  0  0  0  0  0  0
  -13.1395   -2.3186    8.7649 C   0  0  0  0  0  0  0  0  0  0  0  0
  -12.5112   -1.4646    9.8109 N   0  0  0  0  0  0  0  0  0  0  0  0
   -9.1159   -9.8233    8.2851 C   0  0  0  0  0  0  0  0  0  0  0  0
   -7.5543   -8.2135    2.2974 N   0  0  0  0  0  0  0  0  0  0  0  0
   -8.6634   -8.5735    7.7990 C   0  0  0  0  0  0  0  0  0  0  0  0
   -8.4988   -7.4832    8.6943 C   0  0  0  0  0  0  0  0  0  0  0  0
   -8.7840   -7.6440   10.0780 C   0  0  0  0  0  0  0  0  0  0  0  0
   -9.2558   -8.9006   10.5634 C   0  0  0  0  0  0  0  0  0  0  0  0
   -9.4158   -9.9893    9.6630 C   0  0  0  0  0  0  0  0  0  0  0  0
   -7.2718   -9.5822    2.0860 C   0  0  0  0  0  0  0  0  0  0  0  0
   -7.3771  -10.3119    3.2918 C   0  0  0  0  0  0  0  0  0  0  0  0
   -8.0032   -9.5493    5.6562 C   0  0  0  0  0  0  0  0  0  0  0  0
   -8.3856   -8.4221    6.4332 C   0  0  0  0  0  0  0  0  0  0  0  0
   -8.4924   -7.1428    5.8214 C   0  0  0  0  0  0  0  0  0  0  0  0
   -8.2194   -6.9924    4.4349 C   0  0  0  0  0  0  0  0  0  0  0  0
   -7.8485   -8.1308    3.6530 C   0  0  0  0  0  0  0  0  0  0  0  0
   -7.7417   -9.3971    4.2566 C   0  0  0  0  0  0  0  0  0  0  0  0
  1  6  1  0  0  0  0
  2  4  1  0  0  0  0
  3  7  1  0  0  0  0
  4  5  1  0  0  0  0
  6  2  1  0  0  0  0
  7  8  1  0  0  0  0
  8  9  1  0  0  0  0
  9 10  1  0  0  0  0
 10 11  1  0  0  0  0
 10 12  1  0  0  0  0
 11 13  1  0  0  0  0
 13 15  1  0  0  0  0
 14 12  1  0  0  0  0
 15 14  1  0  0  0  0
 16 18  2  0  0  0  0
 16 22  1  0  0  0  0
 17 23  1  0  0  0  0
 17 29  1  0  0  0  0
 18 19  1  0  0  0  0
 18 26  1  0  0  0  0
 19 20  2  0  0  0  0
 20  3  1  0  0  0  0
 20 21  1  0  0  0  0
 21  5  1  0  0  0  0
 21 22  2  0  0  0  0
 23 24  2  0  0  0  0
 24 30  1  0  0  0  0
 25 26  2  0  0  0  0
 25 30  1  0  0  0  0
 26 27  1  0  0  0  0
 27 28  2  0  0  0  0
 28 29  1  0  0  0  0
 29 30  2  0  0  0  0
M  END
>  <CHROM.1>
-60.57126598,-49.64698533,44.94354460,-153.42888839,155.49429353,-138.51610141
-100.78921391,58.66735995,-26.63228784,37.07155881,78.52490146,-9.56160974
-6.89682295,8.66840534,-2.47501960,1.14461220,-1.05573240

>  <Name>
1uts_lig

>  <RI>
0

>  <Rbt.Current_Directory>
/home/itssahil/PROJECTS/Mol_Feturizer/New_Systems/rnas/1uts

>  <Rbt.Executable>
rbdock ($Id: //depot/dev/client3/rdock/2013.1/src/exe/rbdock.cxx#4 $)

>  <Rbt.Library>
libRbt.so (2013.1, Build901 2013/11/27)

>  <Rbt.Parameter_File>
/export/apps/rDock/src/rDock_2013.1_src/data/scripts/dock_solv.prm

>  <Rbt.Receptor>
prm/blind_docking_20.prm

>  <SCORE>
-25.921

>  <SCORE.INTER>
-39.2227

>  <SCORE.INTER.CONST>
1

>  <SCORE.INTER.POLAR>
-4.14716

>  <SCORE.INTER.ROT>
10

>  <SCORE.INTER.SOLV>
10.3192

>  <SCORE.INTER.VDW>
-26.031

>  <SCORE.INTER.norm>
-1.30742

>  <SCORE.INTRA>
7.29675

>  <SCORE.INTRA.DIHEDRAL>
1.17972

>  <SCORE.INTRA.DIHEDRAL.0>
18.0451

>  <SCORE.INTRA.POLAR>
0.196815

>  <SCORE.INTRA.POLAR.0>
-0.196815

>  <SCORE.INTRA.REPUL>
0

>  <SCORE.INTRA.REPUL.0>
0

>  <SCORE.INTRA.SOLV>
-0.264651

>  <SCORE.INTRA.SOLV.lig_0>
-14.7906

>  <SCORE.INTRA.VDW>
6.17004

>  <SCORE.INTRA.VDW.0>
-0.411701

>  <SCORE.INTRA.norm>
0.243225

>  <SCORE.RESTR>
6.00491

>  <SCORE.RESTR.CAVITY>
6.00491

>  <SCORE.RESTR.norm>
0.200164

>  <SCORE.SYSTEM>
0

>  <SCORE.SYSTEM.CONST>
0

>  <SCORE.SYSTEM.DIHEDRAL>
0

>  <SCORE.SYSTEM.SOLV>
0

>  <SCORE.SYSTEM.norm>
0

>  <SCORE.heavy>
30

>  <SCORE.norm>
-0.864034

>  <RMSD>
17.784

$$$$
1uts_lig
 OpenBabel11021811413D
libRbt.so/2013.1/901 2013/11/27
 30 33  0  0  0  0  0  0  0  0999 V2000
  -10.7412   -6.8656   14.6003 N   0  0  0  0  0  0  0  0  0  0  0  0
  -10.5583   -6.5039   12.1769 C   0  0  0  0  0  0  0  0  0  0  0  0
  -10.4223   -5.9633    7.0372 C   0  0  0  0  0  0  0  0  0  0  0  0
  -10.4907   -7.2360   10.8335 C   0  0  0  0  0  0  0  0  0  0  0  0
   -9.7961   -6.4185    9.8801 O   0  0  0  0  0  0  0  0  0  0  0  0
  -10.9648   -7.4876   13.2757 C   0  0  0  0  0  0  0  0  0  0  0  0
   -9.7173   -4.6764    6.8399 N   0  0  0  0  0  0  0  0  0  0  0  0
   -9.3163   -4.1177    8.1583 C   0  0  0  0  0  0  0  0  0  0  0  0
  -10.5314   -3.4868    8.8446 C   0  0  0  0  0  0  0  0  0  0  0  0
  -10.1293   -2.9540   10.1657 N   0  0  0  0  0  0  0  0  0  0  0  0
  -11.3498   -2.6697   10.9741 C   0  0  0  0  0  0  0  0  0  0  0  0
   -9.3306   -1.7104    9.9748 C   0  0  0  0  0  0  0  0  0  0  0  0
  -10.9362   -2.1124   12.3458 C   0  0  0  0  0  0  0  0  0  0  0  0
   -8.9190   -1.1494   11.3479 C   0  0  0  0  0  0  0  0  0  0  0  0
  -10.1384   -0.8680   12.1555 N   0  0  0  0  0  0  0  0  0  0  0  0
   -7.6111   -9.0709    8.3238 C   0  0  0  0  0  0  0  0  0  0  0  0
   -5.6482  -12.2916    3.0714 N   0  0  0  0  0  0  0  0  0  0  0  0
   -7.8985   -8.8963    6.9489 C   0  0  0  0  0  0  0  0  0  0  0  0
   -8.8108   -7.8877    6.5389 C   0  0  0  0  0  0  0  0  0  0  0  0
   -9.4340   -7.0508    7.5048 C   0  0  0  0  0  0  0  0  0  0  0  0
   -9.1552   -7.2393    8.8918 C   0  0  0  0  0  0  0  0  0  0  0  0
   -8.2388   -8.2484    9.2962 C   0  0  0  0  0  0  0  0  0  0  0  0
   -6.8398  -12.9622    2.7133 C   0  0  0  0  0  0  0  0  0  0  0  0
   -7.9324  -12.4936    3.4777 C   0  0  0  0  0  0  0  0  0  0  0  0
   -8.0507  -10.6843    5.2877 C   0  0  0  0  0  0  0  0  0  0  0  0
   -7.2813   -9.7263    6.0025 C   0  0  0  0  0  0  0  0  0  0  0  0
   -5.8868   -9.6067    5.7509 C   0  0  0  0  0  0  0  0  0  0  0  0
   -5.2642  -10.4423    4.7846 C   0  0  0  0  0  0  0  0  0  0  0  0
   -6.0434  -11.3955    4.0572 C   0  0  0  0  0  0  0  0  0  0  0  0
   -7.4231  -11.5157    4.3052 C   0  0  0  0  0  0  0  0  0  0  0  0
  1  6  1  0  0  0  0
  2  4  1  0  0  0  0
  3  7  1  0  0  0  0
  4  5  1  0  0  0  0
  6  2  1  0  0  0  0
  7  8  1  0  0  0  0
  8  9  1  0  0  0  0
  9 10  1  0  0  0  0
 10 11  1  0  0  0  0
 10 12  1  0  0  0  0
 11 13  1  0  0  0  0
 13 15  1  0  0  0  0
 14 12  1  0  0  0  0
 15 14  1  0  0  0  0
 16 18  2  0  0  0  0
 16 22  1  0  0  0  0
 17 23  1  0  0  0  0
 17 29  1  0  0  0  0
 18 19  1  0  0  0  0
 18 26  1  0  0  0  0
 19 20  2  0  0  0  0
 20  3  1  0  0  0  0
 20 21  1  0  0  0  0
 21  5  1  0  0  0  0
 21 22  2  0  0  0  0
 23 24  2  0  0  0  0
 24 30  1  0  0  0  0
 25 26  2  0  0  0  0
 25 30  1  0  0  0  0
 26 27  1  0  0  0  0
 27 28  2  0  0  0  0
 28 29  1  0  0  0  0
 29 30  2  0  0  0  0
M  END
>  <CHROM.1>
-67.64842681,-165.59519448,-70.54076835,152.07459579,167.55588045,-77.40167492
179.02730857,-165.28064835,110.87809359,-92.93269370,123.84161569,-8.90709102
-6.95257872,8.34981537,2.66992942,1.20851495,-0.34034280

>  <Name>
1uts_lig

>  <RI>
0

>  <Rbt.Current_Directory>
/home/itssahil/PROJECTS/Mol_Feturizer/New_Systems/rnas/1uts

>  <Rbt.Executable>
rbdock ($Id: //depot/dev/client3/rdock/2013.1/src/exe/rbdock.cxx#4 $)

>  <Rbt.Library>
libRbt.so (2013.1, Build901 2013/11/27)

>  <Rbt.Parameter_File>
/export/apps/rDock/src/rDock_2013.1_src/data/scripts/dock_solv.prm

>  <Rbt.Receptor>
prm/blind_docking_80.prm

>  <SCORE>
-29.2485

>  <SCORE.INTER>
-29.6492

>  <SCORE.INTER.CONST>
1

>  <SCORE.INTER.POLAR>
-2.16659

>  <SCORE.INTER.ROT>
10

>  <SCORE.INTER.SOLV>
7.19617

>  <SCORE.INTER.VDW>
-25.2095

>  <SCORE.INTER.norm>
-0.988306

>  <SCORE.INTRA>
-1.34535

>  <SCORE.INTRA.DIHEDRAL>
-3.73244

>  <SCORE.INTRA.DIHEDRAL.0>
18.0451

>  <SCORE.INTRA.POLAR>
0.196815

>  <SCORE.INTRA.POLAR.0>
-0.196815

>  <SCORE.INTRA.REPUL>
0

>  <SCORE.INTRA.REPUL.0>
0

>  <SCORE.INTRA.SOLV>
-0.269484

>  <SCORE.INTRA.SOLV.lig_0>
-14.7906

>  <SCORE.INTRA.VDW>
-0.0135613

>  <SCORE.INTRA.VDW.0>
-0.411701

>  <SCORE.INTRA.norm>
-0.0448451

>  <SCORE.RESTR>
1.74601

>  <SCORE.RESTR.CAVITY>
1.74601

>  <SCORE.RESTR.norm>
0.0582003

>  <SCORE.SYSTEM>
0

>  <SCORE.SYSTEM.CONST>
0

>  <SCORE.SYSTEM.DIHEDRAL>
0

>  <SCORE.SYSTEM.SOLV>
0

>  <SCORE.SYSTEM.norm>
0

>  <SCORE.heavy>
30

>  <SCORE.norm>
-0.974951

>  <RMSD>
17.796

$$$$
1uts_lig
 OpenBabel11021811413D
libRbt.so/2013.1/901 2013/11/27
 30 33  0  0  0  0  0  0  0  0999 V2000
   -6.2371  -12.0616    4.6471 N   0  0  0  0  0  0  0  0  0  0  0  0
   -6.5726   -9.6494    4.3218 C   0  0  0  0  0  0  0  0  0  0  0  0
   -9.5736   -6.1650    5.3834 C   0  0  0  0  0  0  0  0  0  0  0  0
   -5.9158   -8.2742    4.4721 C   0  0  0  0  0  0  0  0  0  0  0  0
   -6.9200   -7.2990    4.7887 O   0  0  0  0  0  0  0  0  0  0  0  0
   -5.5785  -10.7384    4.7295 C   0  0  0  0  0  0  0  0  0  0  0  0
  -10.1001   -4.9701    6.0812 N   0  0  0  0  0  0  0  0  0  0  0  0
  -11.2913   -5.3455    6.8881 C   0  0  0  0  0  0  0  0  0  0  0  0
  -11.8455   -4.1080    7.6001 C   0  0  0  0  0  0  0  0  0  0  0  0
  -10.8052   -3.5441    8.4892 N   0  0  0  0  0  0  0  0  0  0  0  0
  -10.5601   -4.4857    9.6193 C   0  0  0  0  0  0  0  0  0  0  0  0
  -11.2591   -2.2211    9.0037 C   0  0  0  0  0  0  0  0  0  0  0  0
   -9.4827   -3.9014   10.5473 C   0  0  0  0  0  0  0  0  0  0  0  0
  -10.1826   -1.6367    9.9360 C   0  0  0  0  0  0  0  0  0  0  0  0
   -9.9366   -2.5787   11.0631 N   0  0  0  0  0  0  0  0  0  0  0  0
   -7.4645   -8.7470    8.2294 C   0  0  0  0  0  0  0  0  0  0  0  0
  -11.0870   -9.1462   13.5801 N   0  0  0  0  0  0  0  0  0  0  0  0
   -8.7304   -8.2076    8.5609 C   0  0  0  0  0  0  0  0  0  0  0  0
   -9.4082   -7.3713    7.6343 C   0  0  0  0  0  0  0  0  0  0  0  0
   -8.8206   -7.0766    6.3734 C   0  0  0  0  0  0  0  0  0  0  0  0
   -7.5368   -7.6083    6.0477 C   0  0  0  0  0  0  0  0  0  0  0  0
   -6.8643   -8.4474    6.9780 C   0  0  0  0  0  0  0  0  0  0  0  0
  -11.2294   -7.7929   13.9624 C   0  0  0  0  0  0  0  0  0  0  0  0
  -10.7177   -6.9302   12.9666 C   0  0  0  0  0  0  0  0  0  0  0  0
   -9.6630   -7.4475   10.6898 C   0  0  0  0  0  0  0  0  0  0  0  0
   -9.3027   -8.5014    9.8066 C   0  0  0  0  0  0  0  0  0  0  0  0
   -9.5302   -9.8529   10.1857 C   0  0  0  0  0  0  0  0  0  0  0  0
  -10.1189  -10.1490   11.4448 C   0  0  0  0  0  0  0  0  0  0  0  0
  -10.4930   -9.0861   12.3253 C   0  0  0  0  0  0  0  0  0  0  0  0
  -10.2682   -7.7484   11.9521 C   0  0  0  0  0  0  0  0  0  0  0  0
  1  6  1  0  0  0  0
  2  4  1  0  0  0  0
  3  7  1  0  0  0  0
  4  5  1  0  0  0  0
  6  2  1  0  0  0  0
  7  8  1  0  0  0  0
  8  9  1  0  0  0  0
  9 10  1  0  0  0  0
 10 11  1  0  0  0  0
 10 12  1  0  0  0  0
 11 13  1  0  0  0  0
 13 15  1  0  0  0  0
 14 12  1  0  0  0  0
 15 14  1  0  0  0  0
 16 18  2  0  0  0  0
 16 22  1  0  0  0  0
 17 23  1  0  0  0  0
 17 29  1  0  0  0  0
 18 19  1  0  0  0  0
 18 26  1  0  0  0  0
 19 20  2  0  0  0  0
 20  3  1  0  0  0  0
 20 21  1  0  0  0  0
 21  5  1  0  0  0  0
 21 22  2  0  0  0  0
 23 24  2  0  0  0  0
 24 30  1  0  0  0  0
 25 26  2  0  0  0  0
 25 30  1  0  0  0  0
 26 27  1  0  0  0  0
 27 28  2  0  0  0  0
 28 29  1  0  0  0  0
 29 30  2  0  0  0  0
M  END
>  <CHROM.1>
-62.26186020,-149.83556404,-75.31382166,62.60325883,177.23086681,-179.45614337
-59.84641419,-68.42707333,122.79571035,45.94293195,-159.40078078,-9.23041628
-6.98491580,8.52768401,-0.07028859,-1.07451416,2.44741988

>  <Name>
1uts_lig

>  <RI>
0

>  <Rbt.Current_Directory>
/home/itssahil/PROJECTS/Mol_Feturizer/New_Systems/rnas/1uts

>  <Rbt.Executable>
rbdock ($Id: //depot/dev/client3/rdock/2013.1/src/exe/rbdock.cxx#4 $)

>  <Rbt.Library>
libRbt.so (2013.1, Build901 2013/11/27)

>  <Rbt.Parameter_File>
/export/apps/rDock/src/rDock_2013.1_src/data/scripts/dock_solv.prm

>  <Rbt.Receptor>
prm/blind_docking_100.prm

>  <SCORE>
-21.3374

>  <SCORE.INTER>
-23.0731

>  <SCORE.INTER.CONST>
1

>  <SCORE.INTER.POLAR>
-0.448886

>  <SCORE.INTER.ROT>
10

>  <SCORE.INTER.SOLV>
11.2101

>  <SCORE.INTER.VDW>
-27.8892

>  <SCORE.INTER.norm>
-0.769105

>  <SCORE.INTRA>
1.09604

>  <SCORE.INTRA.DIHEDRAL>
-9.73259

>  <SCORE.INTRA.DIHEDRAL.0>
18.0451

>  <SCORE.INTRA.POLAR>
0.196815

>  <SCORE.INTRA.POLAR.0>
-0.196815

>  <SCORE.INTRA.REPUL>
0

>  <SCORE.INTRA.REPUL.0>
0

>  <SCORE.INTRA.SOLV>
-0.249329

>  <SCORE.INTRA.SOLV.lig_0>
-14.7906

>  <SCORE.INTRA.VDW>
5.41782

>  <SCORE.INTRA.VDW.0>
-0.411701

>  <SCORE.INTRA.norm>
0.0365346

>  <SCORE.RESTR>
0.639708

>  <SCORE.RESTR.CAVITY>
0.639708

>  <SCORE.RESTR.norm>
0.0213236

>  <SCORE.SYSTEM>
0

>  <SCORE.SYSTEM.CONST>
0

>  <SCORE.SYSTEM.DIHEDRAL>
0

>  <SCORE.SYSTEM.SOLV>
0

>  <SCORE.SYSTEM.norm>
0

>  <SCORE.heavy>
30

>  <SCORE.norm>
-0.711246

>  <RMSD>
17.862

$$$$
1uts_lig
 OpenBabel11021811413D
libRbt.so/2013.1/901 2013/11/27
 30 33  0  0  0  0  0  0  0  0999 V2000
  -12.2713   -1.3557    8.3833 N   0  0  0  0  0  0  0  0  0  0  0  0
  -10.2054   -2.6384    8.7356 C   0  0  0  0  0  0  0  0  0  0  0  0
  -10.8316   -7.1024    8.4640 C   0  0  0  0  0  0  0  0  0  0  0  0
   -9.8377   -4.1015    8.4724 C   0  0  0  0  0  0  0  0  0  0  0  0
  -10.3379   -4.4941    7.1857 O   0  0  0  0  0  0  0  0  0  0  0  0
  -11.6958   -2.5368    9.0653 C   0  0  0  0  0  0  0  0  0  0  0  0
  -10.1680   -7.7619    9.6116 N   0  0  0  0  0  0  0  0  0  0  0  0
  -10.1113   -6.8240   10.7640 C   0  0  0  0  0  0  0  0  0  0  0  0
  -11.0290   -7.3233   11.8838 C   0  0  0  0  0  0  0  0  0  0  0  0
  -10.2085   -7.8939   12.9756 N   0  0  0  0  0  0  0  0  0  0  0  0
  -10.9273   -9.0537   13.5772 C   0  0  0  0  0  0  0  0  0  0  0  0
   -9.9585   -6.8460   14.0053 C   0  0  0  0  0  0  0  0  0  0  0  0
  -10.0796   -9.6467   14.7143 C   0  0  0  0  0  0  0  0  0  0  0  0
   -9.1129   -7.4396   15.1463 C   0  0  0  0  0  0  0  0  0  0  0  0
   -9.8303   -8.5994   15.7451 N   0  0  0  0  0  0  0  0  0  0  0  0
   -7.9918   -6.6415    5.1569 C   0  0  0  0  0  0  0  0  0  0  0  0
   -5.3593  -12.2879    3.6447 N   0  0  0  0  0  0  0  0  0  0  0  0
   -8.1869   -7.9090    5.7558 C   0  0  0  0  0  0  0  0  0  0  0  0
   -9.1083   -8.0513    6.8273 C   0  0  0  0  0  0  0  0  0  0  0  0
   -9.8377   -6.9252    7.2984 C   0  0  0  0  0  0  0  0  0  0  0  0
   -9.6273   -5.6448    6.7039 C   0  0  0  0  0  0  0  0  0  0  0  0
   -8.7060   -5.5090    5.6295 C   0  0  0  0  0  0  0  0  0  0  0  0
   -5.9379  -12.2646    2.3553 C   0  0  0  0  0  0  0  0  0  0  0  0
   -6.8982  -11.2328    2.2511 C   0  0  0  0  0  0  0  0  0  0  0  0
   -7.6640   -9.4850    3.9608 C   0  0  0  0  0  0  0  0  0  0  0  0
   -7.4632   -9.0143    5.2869 C   0  0  0  0  0  0  0  0  0  0  0  0
   -6.5223   -9.6619    6.1341 C   0  0  0  0  0  0  0  0  0  0  0  0
   -5.7826  -10.7765    5.6545 C   0  0  0  0  0  0  0  0  0  0  0  0
   -5.9768  -11.2391    4.3153 C   0  0  0  0  0  0  0  0  0  0  0  0
   -6.9076  -10.6000    3.4759 C   0  0  0  0  0  0  0  0  0  0  0  0
  1  6  1  0  0  0  0
  2  4  1  0  0  0  0
  3  7  1  0  0  0  0
  4  5  1  0  0  0  0
  6  2  1  0  0  0  0
  7  8  1  0  0  0  0
  8  9  1  0  0  0  0
  9 10  1  0  0  0  0
 10 11  1  0  0  0  0
 10 12  1  0  0  0  0
 11 13  1  0  0  0  0
 13 15  1  0  0  0  0
 14 12  1  0  0  0  0
 15 14  1  0  0  0  0
 16 18  2  0  0  0  0
 16 22  1  0  0  0  0
 17 23  1  0  0  0  0
 17 29  1  0  0  0  0
 18 19  1  0  0  0  0
 18 26  1  0  0  0  0
 19 20  2  0  0  0  0
 20  3  1  0  0  0  0
 20 21  1  0  0  0  0
 21  5  1  0  0  0  0
 21 22  2  0  0  0  0
 23 24  2  0  0  0  0
 24 30  1  0  0  0  0
 25 26  2  0  0  0  0
 25 30  1  0  0  0  0
 26 27  1  0  0  0  0
 27 28  2  0  0  0  0
 28 29  1  0  0  0  0
 29 30  2  0  0  0  0
M  END
>  <CHROM.1>
68.58883698,74.40110470,114.88690411,159.21180351,-138.46392954,111.82697445
105.49953802,-144.81989352,-64.39720739,52.58901151,71.79146560,-9.04463272
-7.59832205,8.29367388,2.52318385,-1.09390155,2.04280741

>  <Name>
1uts_lig

>  <RI>
0

>  <Rbt.Current_Directory>
/home/itssahil/PROJECTS/Mol_Feturizer/New_Systems/rnas/1uts

>  <Rbt.Executable>
rbdock ($Id: //depot/dev/client3/rdock/2013.1/src/exe/rbdock.cxx#4 $)

>  <Rbt.Library>
libRbt.so (2013.1, Build901 2013/11/27)

>  <Rbt.Parameter_File>
/export/apps/rDock/src/rDock_2013.1_src/data/scripts/dock_solv.prm

>  <Rbt.Receptor>
prm/blind_docking_60.prm

>  <SCORE>
-26.3589

>  <SCORE.INTER>
-41.6639

>  <SCORE.INTER.CONST>
1

>  <SCORE.INTER.POLAR>
-4.3065

>  <SCORE.INTER.ROT>
10

>  <SCORE.INTER.SOLV>
8.33527

>  <SCORE.INTER.VDW>
-26.466

>  <SCORE.INTER.norm>
-1.3888

>  <SCORE.INTRA>
6.56938

>  <SCORE.INTRA.DIHEDRAL>
12.065

>  <SCORE.INTRA.DIHEDRAL.0>
18.0451

>  <SCORE.INTRA.POLAR>
0.196815

>  <SCORE.INTRA.POLAR.0>
-0.196815

>  <SCORE.INTRA.REPUL>
0

>  <SCORE.INTRA.REPUL.0>
0

>  <SCORE.INTRA.SOLV>
-0.35349

>  <SCORE.INTRA.SOLV.lig_0>
-14.7906

>  <SCORE.INTRA.VDW>
0.0444599

>  <SCORE.INTRA.VDW.0>
-0.411701

>  <SCORE.INTRA.norm>
0.218979

>  <SCORE.RESTR>
8.7356

>  <SCORE.RESTR.CAVITY>
8.7356

>  <SCORE.RESTR.norm>
0.291187

>  <SCORE.SYSTEM>
0

>  <SCORE.SYSTEM.CONST>
0

>  <SCORE.SYSTEM.DIHEDRAL>
0

>  <SCORE.SYSTEM.SOLV>
0

>  <SCORE.SYSTEM.norm>
0

>  <SCORE.heavy>
30

>  <SCORE.norm>
-0.878629

>  <RMSD>
17.868

$$$$
1uts_lig
 OpenBabel11021811413D
libRbt.so/2013.1/901 2013/11/27
 30 33  0  0  0  0  0  0  0  0999 V2000
   -8.5478   -7.8796    2.4546 N   0  0  0  0  0  0  0  0  0  0  0  0
   -7.1086   -9.5034    3.6077 C   0  0  0  0  0  0  0  0  0  0  0  0
   -8.8544   -6.2558    5.5910 C   0  0  0  0  0  0  0  0  0  0  0  0
   -6.0015   -9.0325    4.5552 C   0  0  0  0  0  0  0  0  0  0  0  0
   -6.3686   -7.7674    5.1250 O   0  0  0  0  0  0  0  0  0  0  0  0
   -7.2201   -8.5340    2.4295 C   0  0  0  0  0  0  0  0  0  0  0  0
  -10.1242   -5.6754    6.0837 N   0  0  0  0  0  0  0  0  0  0  0  0
   -9.8628   -4.8543    7.2955 C   0  0  0  0  0  0  0  0  0  0  0  0
  -11.1790   -4.2755    7.8227 C   0  0  0  0  0  0  0  0  0  0  0  0
  -10.9053   -3.4239    9.0020 N   0  0  0  0  0  0  0  0  0  0  0  0
  -12.1256   -2.6329    9.3320 C   0  0  0  0  0  0  0  0  0  0  0  0
   -9.7625   -2.5159    8.7012 C   0  0  0  0  0  0  0  0  0  0  0  0
  -11.8438   -1.7441   10.5542 C   0  0  0  0  0  0  0  0  0  0  0  0
   -9.4818   -1.6227    9.9231 C   0  0  0  0  0  0  0  0  0  0  0  0
  -10.7018   -0.8348   10.2535 N   0  0  0  0  0  0  0  0  0  0  0  0
   -7.2543   -9.0586    8.5572 C   0  0  0  0  0  0  0  0  0  0  0  0
  -11.1023   -8.8371   13.7570 N   0  0  0  0  0  0  0  0  0  0  0  0
   -8.4423   -8.3382    8.8272 C   0  0  0  0  0  0  0  0  0  0  0  0
   -8.9551   -7.4312    7.8619 C   0  0  0  0  0  0  0  0  0  0  0  0
   -8.2806   -7.2468    6.6237 C   0  0  0  0  0  0  0  0  0  0  0  0
   -7.0740   -7.9622    6.3602 C   0  0  0  0  0  0  0  0  0  0  0  0
   -6.5671   -8.8710    7.3290 C   0  0  0  0  0  0  0  0  0  0  0  0
  -11.0150   -7.4797   14.1410 C   0  0  0  0  0  0  0  0  0  0  0  0
  -10.3236   -6.7228   13.1680 C   0  0  0  0  0  0  0  0  0  0  0  0
   -9.2987   -7.4220   10.9264 C   0  0  0  0  0  0  0  0  0  0  0  0
   -9.1009   -8.5241   10.0508 C   0  0  0  0  0  0  0  0  0  0  0  0
   -9.5782   -9.8133   10.4149 C   0  0  0  0  0  0  0  0  0  0  0  0
  -10.2538   -9.9985   11.6513 C   0  0  0  0  0  0  0  0  0  0  0  0
  -10.4635   -8.8850   12.5238 C   0  0  0  0  0  0  0  0  0  0  0  0
   -9.9915   -7.6090   12.1655 C   0  0  0  0  0  0  0  0  0  0  0  0
  1  6  1  0  0  0  0
  2  4  1  0  0  0  0
  3  7  1  0  0  0  0
  4  5  1  0  0  0  0
  6  2  1  0  0  0  0
  7  8  1  0  0  0  0
  8  9  1  0  0  0  0
  9 10  1  0  0  0  0
 10 11  1  0  0  0  0
 10 12  1  0  0  0  0
 11 13  1  0  0  0  0
 13 15  1  0  0  0  0
 14 12  1  0  0  0  0
 15 14  1  0  0  0  0
 16 18  2  0  0  0  0
 16 22  1  0  0  0  0
 17 23  1  0  0  0  0
 17 29  1  0  0  0  0
 18 19  1  0  0  0  0
 18 26  1  0  0  0  0
 19 20  2  0  0  0  0
 20  3  1  0  0  0  0
 20 21  1  0  0  0  0
 21  5  1  0  0  0  0
 21 22  2  0  0  0  0
 23 24  2  0  0  0  0
 24 30  1  0  0  0  0
 25 26  2  0  0  0  0
 25 30  1  0  0  0  0
 26 27  1  0  0  0  0
 27 28  2  0  0  0  0
 28 29  1  0  0  0  0
 29 30  2  0  0  0  0
M  END
>  <CHROM.1>
31.81630838,64.52451444,64.95573113,91.30472877,-116.08287987,-178.89161542
-178.15417272,167.82248048,120.49625296,-2.55756328,-133.37476838,-9.27842110
-6.59547205,8.45703119,0.30530292,1.13211386,-0.77029306

>  <Name>
1uts_lig

>  <RI>
0

>  <Rbt.Current_Directory>
/home/itssahil/PROJECTS/Mol_Feturizer/New_Systems/rnas/1uts

>  <Rbt.Executable>
rbdock ($Id: //depot/dev/client3/rdock/2013.1/src/exe/rbdock.cxx#4 $)

>  <Rbt.Library>
libRbt.so (2013.1, Build901 2013/11/27)

>  <Rbt.Parameter_File>
/export/apps/rDock/src/rDock_2013.1_src/data/scripts/dock_solv.prm

>  <Rbt.Receptor>
prm/blind_docking_60.prm

>  <SCORE>
-15.6924

>  <SCORE.INTER>
-25.5983

>  <SCORE.INTER.CONST>
1

>  <SCORE.INTER.POLAR>
-1.8399

>  <SCORE.INTER.ROT>
10

>  <SCORE.INTER.SOLV>
11.8842

>  <SCORE.INTER.VDW>
-25.1606

>  <SCORE.INTER.norm>
-0.853278

>  <SCORE.INTRA>
6.96195

>  <SCORE.INTRA.DIHEDRAL>
0.260143

>  <SCORE.INTRA.DIHEDRAL.0>
18.0451

>  <SCORE.INTRA.POLAR>
0.196815

>  <SCORE.INTRA.POLAR.0>
-0.196815

>  <SCORE.INTRA.REPUL>
0

>  <SCORE.INTRA.REPUL.0>
0

>  <SCORE.INTRA.SOLV>
-0.205673

>  <SCORE.INTRA.SOLV.lig_0>
-14.7906

>  <SCORE.INTRA.VDW>
6.26554

>  <SCORE.INTRA.VDW.0>
-0.411701

>  <SCORE.INTRA.norm>
0.232065

>  <SCORE.RESTR>
2.94397

>  <SCORE.RESTR.CAVITY>
2.94397

>  <SCORE.RESTR.norm>
0.0981323

>  <SCORE.SYSTEM>
0

>  <SCORE.SYSTEM.CONST>
0

>  <SCORE.SYSTEM.DIHEDRAL>
0

>  <SCORE.SYSTEM.SOLV>
0

>  <SCORE.SYSTEM.norm>
0

>  <SCORE.heavy>
30

>  <SCORE.norm>
-0.52308

>  <RMSD>
17.873

$$$$
1uts_lig
 OpenBabel11021811413D
libRbt.so/2013.1/901 2013/11/27
 30 33  0  0  0  0  0  0  0  0999 V2000
  -11.1883   -1.2531    8.6929 N   0  0  0  0  0  0  0  0  0  0  0  0
   -9.8772   -3.0054    9.8100 C   0  0  0  0  0  0  0  0  0  0  0  0
   -9.5959   -7.6876    9.6963 C   0  0  0  0  0  0  0  0  0  0  0  0
   -9.4627   -3.8299    8.5879 C   0  0  0  0  0  0  0  0  0  0  0  0
  -10.2245   -5.0458    8.5532 O   0  0  0  0  0  0  0  0  0  0  0  0
   -9.9347   -1.5241    9.4322 C   0  0  0  0  0  0  0  0  0  0  0  0
   -8.4405   -7.4280   10.5850 N   0  0  0  0  0  0  0  0  0  0  0  0
   -8.6363   -6.1374   11.2970 C   0  0  0  0  0  0  0  0  0  0  0  0
   -9.9376   -6.1830   12.1033 C   0  0  0  0  0  0  0  0  0  0  0  0
  -11.0582   -5.7151   11.2570 N   0  0  0  0  0  0  0  0  0  0  0  0
  -11.6582   -4.4932   11.8658 C   0  0  0  0  0  0  0  0  0  0  0  0
  -12.0785   -6.7957   11.1463 C   0  0  0  0  0  0  0  0  0  0  0  0
  -12.8251   -4.0065   10.9914 C   0  0  0  0  0  0  0  0  0  0  0  0
  -13.2493   -6.3082   10.2740 C   0  0  0  0  0  0  0  0  0  0  0  0
  -13.8465   -5.0864   10.8814 N   0  0  0  0  0  0  0  0  0  0  0  0
   -8.5885   -6.6524    5.5577 C   0  0  0  0  0  0  0  0  0  0  0  0
   -5.4907  -11.7321    2.9893 N   0  0  0  0  0  0  0  0  0  0  0  0
   -8.2530   -7.9267    6.0743 C   0  0  0  0  0  0  0  0  0  0  0  0
   -8.5819   -8.2555    7.4164 C   0  0  0  0  0  0  0  0  0  0  0  0
   -9.2499   -7.3098    8.2418 C   0  0  0  0  0  0  0  0  0  0  0  0
   -9.5727   -6.0196    7.7239 C   0  0  0  0  0  0  0  0  0  0  0  0
   -9.2438   -5.6972    6.3787 C   0  0  0  0  0  0  0  0  0  0  0  0
   -4.5684  -12.1278    3.9845 C   0  0  0  0  0  0  0  0  0  0  0  0
   -4.7692  -11.3984    5.1783 C   0  0  0  0  0  0  0  0  0  0  0  0
   -6.4901   -9.5924    5.7626 C   0  0  0  0  0  0  0  0  0  0  0  0
   -7.5931   -8.8534    5.2549 C   0  0  0  0  0  0  0  0  0  0  0  0
   -8.0299   -9.0607    3.9176 C   0  0  0  0  0  0  0  0  0  0  0  0
   -7.3660  -10.0070    3.0910 C   0  0  0  0  0  0  0  0  0  0  0  0
   -6.2654  -10.7589    3.6090 C   0  0  0  0  0  0  0  0  0  0  0  0
   -5.8314  -10.5548    4.9317 C   0  0  0  0  0  0  0  0  0  0  0  0
  1  6  1  0  0  0  0
  2  4  1  0  0  0  0
  3  7  1  0  0  0  0
  4  5  1  0  0  0  0
  6  2  1  0  0  0  0
  7  8  1  0  0  0  0
  8  9  1  0  0  0  0
  9 10  1  0  0  0  0
 10 11  1  0  0  0  0
 10 12  1  0  0  0  0
 11 13  1  0  0  0  0
 13 15  1  0  0  0  0
 14 12  1  0  0  0  0
 15 14  1  0  0  0  0
 16 18  2  0  0  0  0
 16 22  1  0  0  0  0
 17 23  1  0  0  0  0
 17 29  1  0  0  0  0
 18 19  1  0  0  0  0
 18 26  1  0  0  0  0
 19 20  2  0  0  0  0
 20  3  1  0  0  0  0
 20 21  1  0  0  0  0
 21  5  1  0  0  0  0
 21 22  2  0  0  0  0
 23 24  2  0  0  0  0
 24 30  1  0  0  0  0
 25 26  2  0  0  0  0
 25 30  1  0  0  0  0
 26 27  1  0  0  0  0
 27 28  2  0  0  0  0
 28 29  1  0  0  0  0
 29 30  2  0  0  0  0
M  END
>  <CHROM.1>
56.55352132,-140.24047971,99.86670883,-160.50000645,78.18633950,58.26405329
-89.20832836,-118.33970594,135.32669205,84.93417758,124.76078824,-9.17670342
-6.87900390,7.97989671,-3.01645589,-1.02991537,2.50541878

>  <Name>
1uts_lig

>  <RI>
0

>  <Rbt.Current_Directory>
/home/itssahil/PROJECTS/Mol_Feturizer/New_Systems/rnas/1uts

>  <Rbt.Executable>
rbdock ($Id: //depot/dev/client3/rdock/2013.1/src/exe/rbdock.cxx#4 $)

>  <Rbt.Library>
libRbt.so (2013.1, Build901 2013/11/27)

>  <Rbt.Parameter_File>
/export/apps/rDock/src/rDock_2013.1_src/data/scripts/dock_solv.prm

>  <Rbt.Receptor>
prm/blind_docking_100.prm

>  <SCORE>
-20.4113

>  <SCORE.INTER>
-26.0613

>  <SCORE.INTER.CONST>
1

>  <SCORE.INTER.POLAR>
-2.47291

>  <SCORE.INTER.ROT>
10

>  <SCORE.INTER.SOLV>
9.6631

>  <SCORE.INTER.VDW>
-22.6189

>  <SCORE.INTER.norm>
-0.86871

>  <SCORE.INTRA>
1.01951

>  <SCORE.INTRA.DIHEDRAL>
4.25056

>  <SCORE.INTRA.DIHEDRAL.0>
18.0451

>  <SCORE.INTRA.POLAR>
-0.803185

>  <SCORE.INTRA.POLAR.0>
-0.196815

>  <SCORE.INTRA.REPUL>
0

>  <SCORE.INTRA.REPUL.0>
0

>  <SCORE.INTRA.SOLV>
0.546738

>  <SCORE.INTRA.SOLV.lig_0>
-14.7906

>  <SCORE.INTRA.VDW>
1.35169

>  <SCORE.INTRA.VDW.0>
-0.411701

>  <SCORE.INTRA.norm>
0.0339836

>  <SCORE.RESTR>
4.63045

>  <SCORE.RESTR.CAVITY>
4.63045

>  <SCORE.RESTR.norm>
0.154348

>  <SCORE.SYSTEM>
0

>  <SCORE.SYSTEM.CONST>
0

>  <SCORE.SYSTEM.DIHEDRAL>
0

>  <SCORE.SYSTEM.SOLV>
0

>  <SCORE.SYSTEM.norm>
0

>  <SCORE.heavy>
30

>  <SCORE.norm>
-0.680378

>  <RMSD>
17.878

$$$$
1uts_lig
 OpenBabel11021811413D
libRbt.so/2013.1/901 2013/11/27
 30 33  0  0  0  0  0  0  0  0999 V2000
   -6.4840   -8.1263    1.6693 N   0  0  0  0  0  0  0  0  0  0  0  0
   -6.8903   -9.6713    3.5362 C   0  0  0  0  0  0  0  0  0  0  0  0
   -9.5182   -5.8450    5.7076 C   0  0  0  0  0  0  0  0  0  0  0  0
   -7.8982   -9.7584    4.6858 C   0  0  0  0  0  0  0  0  0  0  0  0
   -8.5528   -8.4908    4.8423 O   0  0  0  0  0  0  0  0  0  0  0  0
   -7.5214   -8.9271    2.3580 C   0  0  0  0  0  0  0  0  0  0  0  0
  -10.3673   -4.7739    6.2767 N   0  0  0  0  0  0  0  0  0  0  0  0
   -9.6975   -4.1818    7.4649 C   0  0  0  0  0  0  0  0  0  0  0  0
  -10.7488   -3.6096    8.4204 C   0  0  0  0  0  0  0  0  0  0  0  0
  -10.0798   -2.7875    9.4536 N   0  0  0  0  0  0  0  0  0  0  0  0
   -9.6887   -3.6586   10.5990 C   0  0  0  0  0  0  0  0  0  0  0  0
  -11.0086   -1.7149    9.9093 C   0  0  0  0  0  0  0  0  0  0  0  0
   -8.9969   -2.8073   11.6759 C   0  0  0  0  0  0  0  0  0  0  0  0
  -10.3183   -0.8640   10.9905 C   0  0  0  0  0  0  0  0  0  0  0  0
   -9.9258   -1.7351   12.1331 N   0  0  0  0  0  0  0  0  0  0  0  0
   -9.4568   -9.2907    8.4165 C   0  0  0  0  0  0  0  0  0  0  0  0
  -11.4746   -7.6682   14.2666 N   0  0  0  0  0  0  0  0  0  0  0  0
   -9.9116   -8.0319    8.8766 C   0  0  0  0  0  0  0  0  0  0  0  0
   -9.9284   -6.9193    7.9937 C   0  0  0  0  0  0  0  0  0  0  0  0
   -9.4929   -7.0667    6.6482 C   0  0  0  0  0  0  0  0  0  0  0  0
   -9.0193   -8.3331    6.1909 C   0  0  0  0  0  0  0  0  0  0  0  0
   -9.0076   -9.4440    7.0783 C   0  0  0  0  0  0  0  0  0  0  0  0
  -10.9142   -8.8933   14.6943 C   0  0  0  0  0  0  0  0  0  0  0  0
  -10.2997   -9.5711   13.6170 C   0  0  0  0  0  0  0  0  0  0  0  0
  -10.0474   -8.9110   11.1544 C   0  0  0  0  0  0  0  0  0  0  0  0
  -10.3381   -7.8939   10.2050 C   0  0  0  0  0  0  0  0  0  0  0  0
  -11.0558   -6.7337   10.6064 C   0  0  0  0  0  0  0  0  0  0  0  0
  -11.4796   -6.5908   11.9554 C   0  0  0  0  0  0  0  0  0  0  0  0
  -11.1734   -7.6094   12.9112 C   0  0  0  0  0  0  0  0  0  0  0  0
  -10.4640   -8.7582   12.5158 C   0  0  0  0  0  0  0  0  0  0  0  0
  1  6  1  0  0  0  0
  2  4  1  0  0  0  0
  3  7  1  0  0  0  0
  4  5  1  0  0  0  0
  6  2  1  0  0  0  0
  7  8  1  0  0  0  0
  8  9  1  0  0  0  0
  9 10  1  0  0  0  0
 10 11  1  0  0  0  0
 10 12  1  0  0  0  0
 11 13  1  0  0  0  0
 13 15  1  0  0  0  0
 14 12  1  0  0  0  0
 15 14  1  0  0  0  0
 16 18  2  0  0  0  0
 16 22  1  0  0  0  0
 17 23  1  0  0  0  0
 17 29  1  0  0  0  0
 18 19  1  0  0  0  0
 18 26  1  0  0  0  0
 19 20  2  0  0  0  0
 20  3  1  0  0  0  0
 20 21  1  0  0  0  0
 21  5  1  0  0  0  0
 21 22  2  0  0  0  0
 23 24  2  0  0  0  0
 24 30  1  0  0  0  0
 25 26  2  0  0  0  0
 25 30  1  0  0  0  0
 26 27  1  0  0  0  0
 27 28  2  0  0  0  0
 28 29  1  0  0  0  0
 29 30  2  0  0  0  0
M  END
>  <CHROM.1>
-66.83068224,-43.51051787,70.36055273,-154.36692117,145.22098290,-153.04485052
-168.61244575,-88.13668421,13.69744436,-16.13959763,169.07243013,-9.68527800
-6.52586552,8.78638726,-0.15025670,1.27210294,-0.22000074

>  <Name>
1uts_lig

>  <RI>
0

>  <Rbt.Current_Directory>
/home/itssahil/PROJECTS/Mol_Feturizer/New_Systems/rnas/1uts

>  <Rbt.Executable>
rbdock ($Id: //depot/dev/client3/rdock/2013.1/src/exe/rbdock.cxx#4 $)

>  <Rbt.Library>
libRbt.so (2013.1, Build901 2013/11/27)

>  <Rbt.Parameter_File>
/export/apps/rDock/src/rDock_2013.1_src/data/scripts/dock_solv.prm

>  <Rbt.Receptor>
prm/blind_docking_60.prm

>  <SCORE>
-11.474

>  <SCORE.INTER>
-19.9537

>  <SCORE.INTER.CONST>
1

>  <SCORE.INTER.POLAR>
-1.50887

>  <SCORE.INTER.ROT>
10

>  <SCORE.INTER.SOLV>
11.2088

>  <SCORE.INTER.VDW>
-22.2758

>  <SCORE.INTER.norm>
-0.665122

>  <SCORE.INTRA>
4.99834

>  <SCORE.INTRA.DIHEDRAL>
-5.64168

>  <SCORE.INTRA.DIHEDRAL.0>
18.0451

>  <SCORE.INTRA.POLAR>
0.196815

>  <SCORE.INTRA.POLAR.0>
-0.196815

>  <SCORE.INTRA.REPUL>
0

>  <SCORE.INTRA.REPUL.0>
0

>  <SCORE.INTRA.SOLV>
-0.39001

>  <SCORE.INTRA.SOLV.lig_0>
-14.7906

>  <SCORE.INTRA.VDW>
7.34501

>  <SCORE.INTRA.VDW.0>
-0.411701

>  <SCORE.INTRA.norm>
0.166611

>  <SCORE.RESTR>
3.48135

>  <SCORE.RESTR.CAVITY>
3.48135

>  <SCORE.RESTR.norm>
0.116045

>  <SCORE.SYSTEM>
0

>  <SCORE.SYSTEM.CONST>
0

>  <SCORE.SYSTEM.DIHEDRAL>
0

>  <SCORE.SYSTEM.SOLV>
0

>  <SCORE.SYSTEM.norm>
0

>  <SCORE.heavy>
30

>  <SCORE.norm>
-0.382466

>  <RMSD>
17.879

$$$$
1uts_lig
 OpenBabel11021811413D
libRbt.so/2013.1/901 2013/11/27
 30 33  0  0  0  0  0  0  0  0999 V2000
  -12.0254   -1.7057    9.7850 N   0  0  0  0  0  0  0  0  0  0  0  0
  -10.2941   -3.3773    9.2894 C   0  0  0  0  0  0  0  0  0  0  0  0
   -9.6922   -7.0153    9.1484 C   0  0  0  0  0  0  0  0  0  0  0  0
   -9.4223   -3.9168    8.1518 C   0  0  0  0  0  0  0  0  0  0  0  0
  -10.2116   -4.7712    7.3111 O   0  0  0  0  0  0  0  0  0  0  0  0
  -11.4225   -2.5235    8.7083 C   0  0  0  0  0  0  0  0  0  0  0  0
  -11.1685   -6.9030    9.1467 N   0  0  0  0  0  0  0  0  0  0  0  0
  -11.6006   -5.9629   10.2146 C   0  0  0  0  0  0  0  0  0  0  0  0
  -12.1124   -6.7520   11.4233 C   0  0  0  0  0  0  0  0  0  0  0  0
  -10.9826   -7.4653   12.0602 N   0  0  0  0  0  0  0  0  0  0  0  0
  -11.5071   -8.3645   13.1280 C   0  0  0  0  0  0  0  0  0  0  0  0
  -10.0331   -6.4719   12.6368 C   0  0  0  0  0  0  0  0  0  0  0  0
  -10.3359   -9.1043   13.7945 C   0  0  0  0  0  0  0  0  0  0  0  0
   -8.8617   -7.2116   13.3078 C   0  0  0  0  0  0  0  0  0  0  0  0
   -9.3866   -8.1112   14.3725 N   0  0  0  0  0  0  0  0  0  0  0  0
   -8.1243   -6.9590    5.0553 C   0  0  0  0  0  0  0  0  0  0  0  0
   -4.8657  -12.4105    3.9714 N   0  0  0  0  0  0  0  0  0  0  0  0
   -7.8369   -8.0480    5.9125 C   0  0  0  0  0  0  0  0  0  0  0  0
   -8.3477   -8.0597    7.2379 C   0  0  0  0  0  0  0  0  0  0  0  0
   -9.1495   -6.9825    7.7054 C   0  0  0  0  0  0  0  0  0  0  0  0
   -9.4246   -5.8776    6.8447 C   0  0  0  0  0  0  0  0  0  0  0  0
   -8.9132   -5.8729    5.5180 C   0  0  0  0  0  0  0  0  0  0  0  0
   -5.9487  -13.3059    3.8193 C   0  0  0  0  0  0  0  0  0  0  0  0
   -7.1613  -12.7063    4.2288 C   0  0  0  0  0  0  0  0  0  0  0  0
   -7.6430  -10.3540    5.1224 C   0  0  0  0  0  0  0  0  0  0  0  0
   -7.0444   -9.1058    5.4450 C   0  0  0  0  0  0  0  0  0  0  0  0
   -5.6422   -8.9300    5.2861 C   0  0  0  0  0  0  0  0  0  0  0  0
   -4.8414  -10.0001    4.8034 C   0  0  0  0  0  0  0  0  0  0  0  0
   -5.4487  -11.2502    4.4665 C   0  0  0  0  0  0  0  0  0  0  0  0
   -6.8356  -11.4262    4.6236 C   0  0  0  0  0  0  0  0  0  0  0  0
  1  6  1  0  0  0  0
  2  4  1  0  0  0  0
  3  7  1  0  0  0  0
  4  5  1  0  0  0  0
  6  2  1  0  0  0  0
  7  8  1  0  0  0  0
  8  9  1  0  0  0  0
  9 10  1  0  0  0  0
 10 11  1  0  0  0  0
 10 12  1  0  0  0  0
 11 13  1  0  0  0  0
 13 15  1  0  0  0  0
 14 12  1  0  0  0  0
 15 14  1  0  0  0  0
 16 18  2  0  0  0  0
 16 22  1  0  0  0  0
 17 23  1  0  0  0  0
 17 29  1  0  0  0  0
 18 19  1  0  0  0  0
 18 26  1  0  0  0  0
 19 20  2  0  0  0  0
 20  3  1  0  0  0  0
 20 21  1  0  0  0  0
 21  5  1  0  0  0  0
 21 22  2  0  0  0  0
 23 24  2  0  0  0  0
 24 30  1  0  0  0  0
 25 26  2  0  0  0  0
 25 30  1  0  0  0  0
 26 27  1  0  0  0  0
 27 28  2  0  0  0  0
 28 29  1  0  0  0  0
 29 30  2  0  0  0  0
M  END
>  <CHROM.1>
-179.82104082,-62.76393758,-136.81784238,-143.34566998,-164.27414616,-101.67869829
68.17175503,-172.97945026,-105.86276901,-123.30400830,77.54468341,-8.98515694
-7.58332663,8.25253157,2.93831282,-1.06277554,2.24299777

>  <Name>
1uts_lig

>  <RI>
0

>  <Rbt.Current_Directory>
/home/itssahil/PROJECTS/Mol_Feturizer/New_Systems/rnas/1uts

>  <Rbt.Executable>
rbdock ($Id: //depot/dev/client3/rdock/2013.1/src/exe/rbdock.cxx#4 $)

>  <Rbt.Library>
libRbt.so (2013.1, Build901 2013/11/27)

>  <Rbt.Parameter_File>
/export/apps/rDock/src/rDock_2013.1_src/data/scripts/dock_solv.prm

>  <Rbt.Receptor>
prm/blind_docking_60.prm

>  <SCORE>
-13.464

>  <SCORE.INTER>
-19.6434

>  <SCORE.INTER.CONST>
1

>  <SCORE.INTER.POLAR>
-1.19249

>  <SCORE.INTER.ROT>
10

>  <SCORE.INTER.SOLV>
9.3752

>  <SCORE.INTER.VDW>
-22.5124

>  <SCORE.INTER.norm>
-0.65478

>  <SCORE.INTRA>
2.15242

>  <SCORE.INTRA.DIHEDRAL>
3.5535

>  <SCORE.INTRA.DIHEDRAL.0>
18.0451

>  <SCORE.INTRA.POLAR>
0.113746

>  <SCORE.INTRA.POLAR.0>
-0.196815

>  <SCORE.INTRA.REPUL>
0

>  <SCORE.INTRA.REPUL.0>
0

>  <SCORE.INTRA.SOLV>
0.0551685

>  <SCORE.INTRA.SOLV.lig_0>
-14.7906

>  <SCORE.INTRA.VDW>
-0.0386471

>  <SCORE.INTRA.VDW.0>
-0.411701

>  <SCORE.INTRA.norm>
0.0717474

>  <SCORE.RESTR>
4.02697

>  <SCORE.RESTR.CAVITY>
4.02697

>  <SCORE.RESTR.norm>
0.134232

>  <SCORE.SYSTEM>
0

>  <SCORE.SYSTEM.CONST>
0

>  <SCORE.SYSTEM.DIHEDRAL>
0

>  <SCORE.SYSTEM.SOLV>
0

>  <SCORE.SYSTEM.norm>
0

>  <SCORE.heavy>
30

>  <SCORE.norm>
-0.4488

>  <RMSD>
17.883

$$$$
1uts_lig
 OpenBabel11021811413D
libRbt.so/2013.1/901 2013/11/27
 30 33  0  0  0  0  0  0  0  0999 V2000
   -4.7185  -11.5655    3.8138 N   0  0  0  0  0  0  0  0  0  0  0  0
   -6.2319   -9.8574    4.7244 C   0  0  0  0  0  0  0  0  0  0  0  0
   -9.0835   -5.7345    5.9868 C   0  0  0  0  0  0  0  0  0  0  0  0
   -7.6431   -9.4763    4.2678 C   0  0  0  0  0  0  0  0  0  0  0  0
   -7.9625   -8.1640    4.7531 O   0  0  0  0  0  0  0  0  0  0  0  0
   -6.0103  -11.3551    4.5054 C   0  0  0  0  0  0  0  0  0  0  0  0
   -9.5661   -4.6694    6.8950 N   0  0  0  0  0  0  0  0  0  0  0  0
  -10.8930   -5.0472    7.4495 C   0  0  0  0  0  0  0  0  0  0  0  0
  -11.6012   -3.8022    7.9916 C   0  0  0  0  0  0  0  0  0  0  0  0
  -10.6532   -3.0132    8.8099 N   0  0  0  0  0  0  0  0  0  0  0  0
  -10.5520   -3.6201   10.1684 C   0  0  0  0  0  0  0  0  0  0  0  0
  -11.1338   -1.6057    8.9035 C   0  0  0  0  0  0  0  0  0  0  0  0
   -9.5709   -2.8009   11.0226 C   0  0  0  0  0  0  0  0  0  0  0  0
  -10.1540   -0.7853    9.7618 C   0  0  0  0  0  0  0  0  0  0  0  0
  -10.0517   -1.3934   11.1176 N   0  0  0  0  0  0  0  0  0  0  0  0
   -8.8400   -9.5358    8.1560 C   0  0  0  0  0  0  0  0  0  0  0  0
  -11.2098   -8.4902   14.1040 N   0  0  0  0  0  0  0  0  0  0  0  0
   -9.3691   -8.3868    8.7909 C   0  0  0  0  0  0  0  0  0  0  0  0
   -9.4447   -7.1581    8.0824 C   0  0  0  0  0  0  0  0  0  0  0  0
   -8.9935   -7.0791    6.7363 C   0  0  0  0  0  0  0  0  0  0  0  0
   -8.4452   -8.2349    6.1033 C   0  0  0  0  0  0  0  0  0  0  0  0
   -8.3749   -9.4630    6.8164 C   0  0  0  0  0  0  0  0  0  0  0  0
  -11.3784   -7.0953   14.2579 C   0  0  0  0  0  0  0  0  0  0  0  0
  -11.0003   -6.4080   13.0822 C   0  0  0  0  0  0  0  0  0  0  0  0
  -10.1363   -7.2893   10.8370 C   0  0  0  0  0  0  0  0  0  0  0  0
   -9.8107   -8.4720   10.1188 C   0  0  0  0  0  0  0  0  0  0  0  0
   -9.9402   -9.7411   10.7471 C   0  0  0  0  0  0  0  0  0  0  0  0
  -10.3968   -9.8266   12.0902 C   0  0  0  0  0  0  0  0  0  0  0  0
  -10.7368   -8.6360   12.8054 C   0  0  0  0  0  0  0  0  0  0  0  0
  -10.6087   -7.3794   12.1857 C   0  0  0  0  0  0  0  0  0  0  0  0
  1  6  1  0  0  0  0
  2  4  1  0  0  0  0
  3  7  1  0  0  0  0
  4  5  1  0  0  0  0
  6  2  1  0  0  0  0
  7  8  1  0  0  0  0
  8  9  1  0  0  0  0
  9 10  1  0  0  0  0
 10 11  1  0  0  0  0
 10 12  1  0  0  0  0
 11 13  1  0  0  0  0
 13 15  1  0  0  0  0
 14 12  1  0  0  0  0
 15 14  1  0  0  0  0
 16 18  2  0  0  0  0
 16 22  1  0  0  0  0
 17 23  1  0  0  0  0
 17 29  1  0  0  0  0
 18 19  1  0  0  0  0
 18 26  1  0  0  0  0
 19 20  2  0  0  0  0
 20  3  1  0  0  0  0
 20 21  1  0  0  0  0
 21  5  1  0  0  0  0
 21 22  2  0  0  0  0
 23 24  2  0  0  0  0
 24 30  1  0  0  0  0
 25 26  2  0  0  0  0
 25 30  1  0  0  0  0
 26 27  1  0  0  0  0
 27 28  2  0  0  0  0
 28 29  1  0  0  0  0
 29 30  2  0  0  0  0
M  END
>  <CHROM.1>
-68.40005028,166.62495217,-57.97816449,-83.62963410,131.51048422,-161.18787323
-46.27691984,-80.32517910,169.65208151,4.36083241,-171.59993156,-9.43279164
-6.80322877,8.74560446,-0.20216685,1.13521611,-0.52570542

>  <Name>
1uts_lig

>  <RI>
0

>  <Rbt.Current_Directory>
/home/itssahil/PROJECTS/Mol_Feturizer/New_Systems/rnas/1uts

>  <Rbt.Executable>
rbdock ($Id: //depot/dev/client3/rdock/2013.1/src/exe/rbdock.cxx#4 $)

>  <Rbt.Library>
libRbt.so (2013.1, Build901 2013/11/27)

>  <Rbt.Parameter_File>
/export/apps/rDock/src/rDock_2013.1_src/data/scripts/dock_solv.prm

>  <Rbt.Receptor>
prm/blind_docking_60.prm

>  <SCORE>
-14.2688

>  <SCORE.INTER>
-24.9882

>  <SCORE.INTER.CONST>
1

>  <SCORE.INTER.POLAR>
-2.07895

>  <SCORE.INTER.ROT>
10

>  <SCORE.INTER.SOLV>
11.7048

>  <SCORE.INTER.VDW>
-23.8972

>  <SCORE.INTER.norm>
-0.832939

>  <SCORE.INTRA>
8.31382

>  <SCORE.INTRA.DIHEDRAL>
-6.31982

>  <SCORE.INTRA.DIHEDRAL.0>
18.0451

>  <SCORE.INTRA.POLAR>
0.196815

>  <SCORE.INTRA.POLAR.0>
-0.196815

>  <SCORE.INTRA.REPUL>
0

>  <SCORE.INTRA.REPUL.0>
0

>  <SCORE.INTRA.SOLV>
-0.227446

>  <SCORE.INTRA.SOLV.lig_0>
-14.7906

>  <SCORE.INTRA.VDW>
10.9183

>  <SCORE.INTRA.VDW.0>
-0.411701

>  <SCORE.INTRA.norm>
0.277127

>  <SCORE.RESTR>
2.40561

>  <SCORE.RESTR.CAVITY>
2.40561

>  <SCORE.RESTR.norm>
0.0801871

>  <SCORE.SYSTEM>
0

>  <SCORE.SYSTEM.CONST>
0

>  <SCORE.SYSTEM.DIHEDRAL>
0

>  <SCORE.SYSTEM.SOLV>
0

>  <SCORE.SYSTEM.norm>
0

>  <SCORE.heavy>
30

>  <SCORE.norm>
-0.475625

>  <RMSD>
17.905

$$$$
1uts_lig
 OpenBabel11021811413D
libRbt.so/2013.1/901 2013/11/27
 30 33  0  0  0  0  0  0  0  0999 V2000
   -5.9645   -8.7926    6.1429 N   0  0  0  0  0  0  0  0  0  0  0  0
   -6.8467   -9.7875    4.0767 C   0  0  0  0  0  0  0  0  0  0  0  0
   -8.6590   -5.6424    5.0620 C   0  0  0  0  0  0  0  0  0  0  0  0
   -7.3940   -8.4507    3.5682 C   0  0  0  0  0  0  0  0  0  0  0  0
   -8.7860   -8.3480    3.9024 O   0  0  0  0  0  0  0  0  0  0  0  0
   -5.5944   -9.5400    4.9199 C   0  0  0  0  0  0  0  0  0  0  0  0
   -9.2203   -4.4492    5.7353 N   0  0  0  0  0  0  0  0  0  0  0  0
  -10.6717   -4.6522    5.9866 C   0  0  0  0  0  0  0  0  0  0  0  0
  -10.9228   -4.7869    7.4913 C   0  0  0  0  0  0  0  0  0  0  0  0
  -10.7572   -3.4661    8.1386 N   0  0  0  0  0  0  0  0  0  0  0  0
   -9.7665   -3.5820    9.2473 C   0  0  0  0  0  0  0  0  0  0  0  0
  -12.0734   -3.0044    8.6633 C   0  0  0  0  0  0  0  0  0  0  0  0
   -9.5947   -2.2127    9.9245 C   0  0  0  0  0  0  0  0  0  0  0  0
  -11.9018   -1.6350    9.3450 C   0  0  0  0  0  0  0  0  0  0  0  0
  -10.9105   -1.7509   10.4506 N   0  0  0  0  0  0  0  0  0  0  0  0
   -9.3156   -9.1986    7.5394 C   0  0  0  0  0  0  0  0  0  0  0  0
   -9.8605   -7.6634   13.7218 N   0  0  0  0  0  0  0  0  0  0  0  0
   -9.2431   -7.9180    8.1378 C   0  0  0  0  0  0  0  0  0  0  0  0
   -9.0297   -6.7699    7.3293 C   0  0  0  0  0  0  0  0  0  0  0  0
   -8.8917   -6.9023    5.9202 C   0  0  0  0  0  0  0  0  0  0  0  0
   -8.9488   -8.1963    5.3207 C   0  0  0  0  0  0  0  0  0  0  0  0
   -9.1657   -9.3417    6.1347 C   0  0  0  0  0  0  0  0  0  0  0  0
  -10.5585   -8.8827   13.8764 C   0  0  0  0  0  0  0  0  0  0  0  0
  -10.7642   -9.5091   12.6262 C   0  0  0  0  0  0  0  0  0  0  0  0
  -10.0606   -8.7999   10.2670 C   0  0  0  0  0  0  0  0  0  0  0  0
   -9.3787   -7.7954    9.5278 C   0  0  0  0  0  0  0  0  0  0  0  0
   -8.8285   -6.6703   10.2013 C   0  0  0  0  0  0  0  0  0  0  0  0
   -8.9586   -6.5518   11.6115 C   0  0  0  0  0  0  0  0  0  0  0  0
   -9.6331   -7.5710   12.3540 C   0  0  0  0  0  0  0  0  0  0  0  0
  -10.1785   -8.6846   11.6893 C   0  0  0  0  0  0  0  0  0  0  0  0
  1  6  1  0  0  0  0
  2  4  1  0  0  0  0
  3  7  1  0  0  0  0
  4  5  1  0  0  0  0
  6  2  1  0  0  0  0
  7  8  1  0  0  0  0
  8  9  1  0  0  0  0
  9 10  1  0  0  0  0
 10 11  1  0  0  0  0
 10 12  1  0  0  0  0
 11 13  1  0  0  0  0
 13 15  1  0  0  0  0
 14 12  1  0  0  0  0
 15 14  1  0  0  0  0
 16 18  2  0  0  0  0
 16 22  1  0  0  0  0
 17 23  1  0  0  0  0
 17 29  1  0  0  0  0
 18 19  1  0  0  0  0
 18 26  1  0  0  0  0
 19 20  2  0  0  0  0
 20  3  1  0  0  0  0
 20 21  1  0  0  0  0
 21  5  1  0  0  0  0
 21 22  2  0  0  0  0
 23 24  2  0  0  0  0
 24 30  1  0  0  0  0
 25 26  2  0  0  0  0
 25 30  1  0  0  0  0
 26 27  1  0  0  0  0
 27 28  2  0  0  0  0
 28 29  1  0  0  0  0
 29 30  2  0  0  0  0
M  END
>  <CHROM.1>
-73.71548903,-127.64842995,-57.81285190,69.44035208,65.62092553,111.45723397
72.30675546,-125.62483302,-23.47721583,-26.22327858,86.30655860,-9.37384062
-6.59686931,8.22870425,-0.40830120,-1.15035969,2.21254659

>  <Name>
1uts_lig

>  <RI>
0

>  <Rbt.Current_Directory>
/home/itssahil/PROJECTS/Mol_Feturizer/New_Systems/rnas/1uts

>  <Rbt.Executable>
rbdock ($Id: //depot/dev/client3/rdock/2013.1/src/exe/rbdock.cxx#4 $)

>  <Rbt.Library>
libRbt.so (2013.1, Build901 2013/11/27)

>  <Rbt.Parameter_File>
/export/apps/rDock/src/rDock_2013.1_src/data/scripts/dock_solv.prm

>  <Rbt.Receptor>
prm/blind_docking_60.prm

>  <SCORE>
-23.5902

>  <SCORE.INTER>
-30.3343

>  <SCORE.INTER.CONST>
1

>  <SCORE.INTER.POLAR>
-2.00439

>  <SCORE.INTER.ROT>
10

>  <SCORE.INTER.SOLV>
8.37915

>  <SCORE.INTER.VDW>
-26.6013

>  <SCORE.INTER.norm>
-1.01114

>  <SCORE.INTRA>
5.46486

>  <SCORE.INTRA.DIHEDRAL>
2.03515

>  <SCORE.INTRA.DIHEDRAL.0>
18.0451

>  <SCORE.INTRA.POLAR>
0.196815

>  <SCORE.INTRA.POLAR.0>
-0.196815

>  <SCORE.INTRA.REPUL>
0

>  <SCORE.INTRA.REPUL.0>
0

>  <SCORE.INTRA.SOLV>
0.532482

>  <SCORE.INTRA.SOLV.lig_0>
-14.7906

>  <SCORE.INTRA.VDW>
3.51187

>  <SCORE.INTRA.VDW.0>
-0.411701

>  <SCORE.INTRA.norm>
0.182162

>  <SCORE.RESTR>
1.27918

>  <SCORE.RESTR.CAVITY>
1.27918

>  <SCORE.RESTR.norm>
0.0426394

>  <SCORE.SYSTEM>
0

>  <SCORE.SYSTEM.CONST>
0

>  <SCORE.SYSTEM.DIHEDRAL>
0

>  <SCORE.SYSTEM.SOLV>
0

>  <SCORE.SYSTEM.norm>
0

>  <SCORE.heavy>
30

>  <SCORE.norm>
-0.786341

>  <RMSD>
17.910

$$$$
1uts_lig
 OpenBabel11021811413D
libRbt.so/2013.1/901 2013/11/27
 30 33  0  0  0  0  0  0  0  0999 V2000
   -6.5081  -12.5438    4.5601 N   0  0  0  0  0  0  0  0  0  0  0  0
   -6.8186  -10.2629    3.7011 C   0  0  0  0  0  0  0  0  0  0  0  0
   -8.8543   -5.8133    5.6753 C   0  0  0  0  0  0  0  0  0  0  0  0
   -6.8670   -9.2477    4.8467 C   0  0  0  0  0  0  0  0  0  0  0  0
   -8.1023   -8.5197    4.7860 O   0  0  0  0  0  0  0  0  0  0  0  0
   -5.8008  -11.3566    4.0295 C   0  0  0  0  0  0  0  0  0  0  0  0
   -9.9236   -4.8281    5.9547 N   0  0  0  0  0  0  0  0  0  0  0  0
   -9.6971   -4.2074    7.2868 C   0  0  0  0  0  0  0  0  0  0  0  0
  -11.0074   -4.1900    8.0795 C   0  0  0  0  0  0  0  0  0  0  0  0
  -10.8406   -3.3528    9.2886 N   0  0  0  0  0  0  0  0  0  0  0  0
  -10.7046   -1.9241    8.8833 C   0  0  0  0  0  0  0  0  0  0  0  0
   -9.6306   -3.7989   10.0355 C   0  0  0  0  0  0  0  0  0  0  0  0
  -10.5272   -1.0517   10.1366 C   0  0  0  0  0  0  0  0  0  0  0  0
   -9.4499   -2.9236   11.2888 C   0  0  0  0  0  0  0  0  0  0  0  0
   -9.3165   -1.4967   10.8833 N   0  0  0  0  0  0  0  0  0  0  0  0
   -9.3437   -9.3220    8.2568 C   0  0  0  0  0  0  0  0  0  0  0  0
  -11.5825   -7.6413   14.0134 N   0  0  0  0  0  0  0  0  0  0  0  0
   -9.7005   -8.0361    8.7286 C   0  0  0  0  0  0  0  0  0  0  0  0
   -9.5390   -6.9033    7.8870 C   0  0  0  0  0  0  0  0  0  0  0  0
   -9.0228   -7.0572    6.5710 C   0  0  0  0  0  0  0  0  0  0  0  0
   -8.6484   -8.3525    6.1032 C   0  0  0  0  0  0  0  0  0  0  0  0
   -8.8152   -9.4832    6.9489 C   0  0  0  0  0  0  0  0  0  0  0  0
  -11.0017   -8.8362   14.4957 C   0  0  0  0  0  0  0  0  0  0  0  0
  -10.3013   -9.5080   13.4682 C   0  0  0  0  0  0  0  0  0  0  0  0
   -9.9333   -8.8808   11.0115 C   0  0  0  0  0  0  0  0  0  0  0  0
  -10.2074   -7.8921   10.0278 C   0  0  0  0  0  0  0  0  0  0  0  0
  -10.9903   -6.7540   10.3655 C   0  0  0  0  0  0  0  0  0  0  0  0
  -11.4957   -6.6045   11.6853 C   0  0  0  0  0  0  0  0  0  0  0  0
  -11.2066   -7.5940   12.6764 C   0  0  0  0  0  0  0  0  0  0  0  0
  -10.4328   -8.7210   12.3440 C   0  0  0  0  0  0  0  0  0  0  0  0
  1  6  1  0  0  0  0
  2  4  1  0  0  0  0
  3  7  1  0  0  0  0
  4  5  1  0  0  0  0
  6  2  1  0  0  0  0
  7  8  1  0  0  0  0
  8  9  1  0  0  0  0
  9 10  1  0  0  0  0
 10 11  1  0  0  0  0
 10 12  1  0  0  0  0
 11 13  1  0  0  0  0
 13 15  1  0  0  0  0
 14 12  1  0  0  0  0
 15 14  1  0  0  0  0
 16 18  2  0  0  0  0
 16 22  1  0  0  0  0
 17 23  1  0  0  0  0
 17 29  1  0  0  0  0
 18 19  1  0  0  0  0
 18 26  1  0  0  0  0
 19 20  2  0  0  0  0
 20  3  1  0  0  0  0
 20 21  1  0  0  0  0
 21  5  1  0  0  0  0
 21 22  2  0  0  0  0
 23 24  2  0  0  0  0
 24 30  1  0  0  0  0
 25 26  2  0  0  0  0
 25 30  1  0  0  0  0
 26 27  1  0  0  0  0
 27 28  2  0  0  0  0
 28 29  1  0  0  0  0
 29 30  2  0  0  0  0
M  END
>  <CHROM.1>
-59.07634319,-159.64359965,71.20664509,138.27973479,98.88103335,-133.43736305
-169.49485243,69.08904720,22.35073400,-33.75319315,127.86579568,-9.50443786
-6.85007093,8.71137042,0.26939770,-1.18545979,2.72649744

>  <Name>
1uts_lig

>  <RI>
0

>  <Rbt.Current_Directory>
/home/itssahil/PROJECTS/Mol_Feturizer/New_Systems/rnas/1uts

>  <Rbt.Executable>
rbdock ($Id: //depot/dev/client3/rdock/2013.1/src/exe/rbdock.cxx#4 $)

>  <Rbt.Library>
libRbt.so (2013.1, Build901 2013/11/27)

>  <Rbt.Parameter_File>
/export/apps/rDock/src/rDock_2013.1_src/data/scripts/dock_solv.prm

>  <Rbt.Receptor>
prm/blind_docking_60.prm

>  <SCORE>
-9.68758

>  <SCORE.INTER>
-19.0883

>  <SCORE.INTER.CONST>
1

>  <SCORE.INTER.POLAR>
-0.0618837

>  <SCORE.INTER.ROT>
10

>  <SCORE.INTER.SOLV>
10.0824

>  <SCORE.INTER.VDW>
-26.1467

>  <SCORE.INTER.norm>
-0.636275

>  <SCORE.INTRA>
8.0887

>  <SCORE.INTRA.DIHEDRAL>
1.52673

>  <SCORE.INTRA.DIHEDRAL.0>
18.0451

>  <SCORE.INTRA.POLAR>
0.196815

>  <SCORE.INTRA.POLAR.0>
-0.196815

>  <SCORE.INTRA.REPUL>
0

>  <SCORE.INTRA.REPUL.0>
0

>  <SCORE.INTRA.SOLV>
-0.320217

>  <SCORE.INTRA.SOLV.lig_0>
-14.7906

>  <SCORE.INTRA.VDW>
6.81628

>  <SCORE.INTRA.VDW.0>
-0.411701

>  <SCORE.INTRA.norm>
0.269623

>  <SCORE.RESTR>
1.31196

>  <SCORE.RESTR.CAVITY>
1.31196

>  <SCORE.RESTR.norm>
0.0437321

>  <SCORE.SYSTEM>
0

>  <SCORE.SYSTEM.CONST>
0

>  <SCORE.SYSTEM.DIHEDRAL>
0

>  <SCORE.SYSTEM.SOLV>
0

>  <SCORE.SYSTEM.norm>
0

>  <SCORE.heavy>
30

>  <SCORE.norm>
-0.322919

>  <RMSD>
17.919

$$$$
1uts_lig
 OpenBabel11021811413D
libRbt.so/2013.1/901 2013/11/27
 30 33  0  0  0  0  0  0  0  0999 V2000
   -6.9628   -7.0448    4.2173 N   0  0  0  0  0  0  0  0  0  0  0  0
   -5.9784   -8.9495    5.4174 C   0  0  0  0  0  0  0  0  0  0  0  0
  -10.8974   -7.5959    5.4780 C   0  0  0  0  0  0  0  0  0  0  0  0
   -7.1766   -9.8640    5.1463 C   0  0  0  0  0  0  0  0  0  0  0  0
   -8.3774   -9.0786    5.1142 O   0  0  0  0  0  0  0  0  0  0  0  0
   -5.8084   -7.9708    4.2540 C   0  0  0  0  0  0  0  0  0  0  0  0
  -10.3014   -6.3692    4.9016 N   0  0  0  0  0  0  0  0  0  0  0  0
  -10.7189   -5.1865    5.7002 C   0  0  0  0  0  0  0  0  0  0  0  0
   -9.9345   -5.1463    7.0149 C   0  0  0  0  0  0  0  0  0  0  0  0
  -10.2995   -3.9262    7.7693 N   0  0  0  0  0  0  0  0  0  0  0  0
   -9.3883   -3.7806    8.9408 C   0  0  0  0  0  0  0  0  0  0  0  0
  -11.7157   -4.0300    8.2215 C   0  0  0  0  0  0  0  0  0  0  0  0
   -9.7670   -2.5163    9.7290 C   0  0  0  0  0  0  0  0  0  0  0  0
  -12.0948   -2.7661    9.0142 C   0  0  0  0  0  0  0  0  0  0  0  0
  -11.1829   -2.6201   10.1827 N   0  0  0  0  0  0  0  0  0  0  0  0
   -8.5185   -8.9962    8.8832 C   0  0  0  0  0  0  0  0  0  0  0  0
  -11.4615   -6.9639   14.2840 N   0  0  0  0  0  0  0  0  0  0  0  0
   -9.7145   -8.2713    9.1008 C   0  0  0  0  0  0  0  0  0  0  0  0
  -10.4804   -7.8201    7.9929 C   0  0  0  0  0  0  0  0  0  0  0  0
  -10.0511   -8.0968    6.6659 C   0  0  0  0  0  0  0  0  0  0  0  0
   -8.8363   -8.8137    6.4485 C   0  0  0  0  0  0  0  0  0  0  0  0
   -8.0754   -9.2656    7.5614 C   0  0  0  0  0  0  0  0  0  0  0  0
  -11.6761   -5.5859   14.0540 C   0  0  0  0  0  0  0  0  0  0  0  0
  -11.3419   -5.2375   12.7256 C   0  0  0  0  0  0  0  0  0  0  0  0
  -10.4853   -6.6765   10.7866 C   0  0  0  0  0  0  0  0  0  0  0  0
  -10.1307   -8.0010   10.4120 C   0  0  0  0  0  0  0  0  0  0  0  0
  -10.2054   -9.0519   11.3672 C   0  0  0  0  0  0  0  0  0  0  0  0
  -10.6362   -8.7782   12.6935 C   0  0  0  0  0  0  0  0  0  0  0  0
  -11.0055   -7.4472   13.0635 C   0  0  0  0  0  0  0  0  0  0  0  0
  -10.9317   -6.4061   12.1200 C   0  0  0  0  0  0  0  0  0  0  0  0
  1  6  1  0  0  0  0
  2  4  1  0  0  0  0
  3  7  1  0  0  0  0
  4  5  1  0  0  0  0
  6  2  1  0  0  0  0
  7  8  1  0  0  0  0
  8  9  1  0  0  0  0
  9 10  1  0  0  0  0
 10 11  1  0  0  0  0
 10 12  1  0  0  0  0
 11 13  1  0  0  0  0
 13 15  1  0  0  0  0
 14 12  1  0  0  0  0
 15 14  1  0  0  0  0
 16 18  2  0  0  0  0
 16 22  1  0  0  0  0
 17 23  1  0  0  0  0
 17 29  1  0  0  0  0
 18 19  1  0  0  0  0
 18 26  1  0  0  0  0
 19 20  2  0  0  0  0
 20  3  1  0  0  0  0
 20 21  1  0  0  0  0
 21  5  1  0  0  0  0
 21 22  2  0  0  0  0
 23 24  2  0  0  0  0
 24 30  1  0  0  0  0
 25 26  2  0  0  0  0
 25 30  1  0  0  0  0
 26 27  1  0  0  0  0
 27 28  2  0  0  0  0
 28 29  1  0  0  0  0
 29 30  2  0  0  0  0
M  END
>  <CHROM.1>
166.89357057,-64.33506126,-82.28218646,-80.89861037,66.66185032,75.60669530
176.82391147,-171.36938414,129.76619573,100.79480748,-177.22799977,-9.77671607
-6.67421377,8.52386570,0.46044937,1.10023221,-0.85320605

>  <Name>
1uts_lig

>  <RI>
0

>  <Rbt.Current_Directory>
/home/itssahil/PROJECTS/Mol_Feturizer/New_Systems/rnas/1uts

>  <Rbt.Executable>
rbdock ($Id: //depot/dev/client3/rdock/2013.1/src/exe/rbdock.cxx#4 $)

>  <Rbt.Library>
libRbt.so (2013.1, Build901 2013/11/27)

>  <Rbt.Parameter_File>
/export/apps/rDock/src/rDock_2013.1_src/data/scripts/dock_solv.prm

>  <Rbt.Receptor>
prm/blind_docking_100.prm

>  <SCORE>
-25.4713

>  <SCORE.INTER>
-28.6873

>  <SCORE.INTER.CONST>
1

>  <SCORE.INTER.POLAR>
-2.47214

>  <SCORE.INTER.ROT>
10

>  <SCORE.INTER.SOLV>
8.8627

>  <SCORE.INTER.VDW>
-24.1053

>  <SCORE.INTER.norm>
-0.956244

>  <SCORE.INTRA>
-0.349629

>  <SCORE.INTRA.DIHEDRAL>
-9.9854

>  <SCORE.INTRA.DIHEDRAL.0>
18.0451

>  <SCORE.INTRA.POLAR>
-0.0617285

>  <SCORE.INTRA.POLAR.0>
-0.196815

>  <SCORE.INTRA.REPUL>
0

>  <SCORE.INTRA.REPUL.0>
0

>  <SCORE.INTRA.SOLV>
0.793102

>  <SCORE.INTRA.SOLV.lig_0>
-14.7906

>  <SCORE.INTRA.VDW>
4.4564

>  <SCORE.INTRA.VDW.0>
-0.411701

>  <SCORE.INTRA.norm>
-0.0116543

>  <SCORE.RESTR>
3.56564

>  <SCORE.RESTR.CAVITY>
3.56564

>  <SCORE.RESTR.norm>
0.118855

>  <SCORE.SYSTEM>
0

>  <SCORE.SYSTEM.CONST>
0

>  <SCORE.SYSTEM.DIHEDRAL>
0

>  <SCORE.SYSTEM.SOLV>
0

>  <SCORE.SYSTEM.norm>
0

>  <SCORE.heavy>
30

>  <SCORE.norm>
-0.849044

>  <RMSD>
17.927

$$$$
1uts_lig
 OpenBabel11021811413D
libRbt.so/2013.1/901 2013/11/27
 30 33  0  0  0  0  0  0  0  0999 V2000
  -10.1263   -9.1554   15.7340 N   0  0  0  0  0  0  0  0  0  0  0  0
   -9.8632   -7.6676   13.7964 C   0  0  0  0  0  0  0  0  0  0  0  0
  -11.0026   -6.1240    9.2942 C   0  0  0  0  0  0  0  0  0  0  0  0
  -10.3290   -7.4302   12.3571 C   0  0  0  0  0  0  0  0  0  0  0  0
   -9.3219   -6.6959   11.6456 O   0  0  0  0  0  0  0  0  0  0  0  0
  -10.3649   -9.0300   14.2784 C   0  0  0  0  0  0  0  0  0  0  0  0
  -11.4059   -5.7288    7.9255 N   0  0  0  0  0  0  0  0  0  0  0  0
  -12.7148   -5.0248    7.9726 C   0  0  0  0  0  0  0  0  0  0  0  0
  -12.4909   -3.5110    7.9131 C   0  0  0  0  0  0  0  0  0  0  0  0
  -11.5931   -3.1020    9.0166 N   0  0  0  0  0  0  0  0  0  0  0  0
  -12.2703   -3.3536   10.3212 C   0  0  0  0  0  0  0  0  0  0  0  0
  -11.2609   -1.6563    8.8733 C   0  0  0  0  0  0  0  0  0  0  0  0
  -11.3421   -2.9264   11.4698 C   0  0  0  0  0  0  0  0  0  0  0  0
  -10.3345   -1.2265   10.0251 C   0  0  0  0  0  0  0  0  0  0  0  0
  -11.0105   -1.4803   11.3278 N   0  0  0  0  0  0  0  0  0  0  0  0
   -7.6158   -8.9004    9.1037 C   0  0  0  0  0  0  0  0  0  0  0  0
   -6.9742  -11.3857    3.2466 N   0  0  0  0  0  0  0  0  0  0  0  0
   -8.4098   -8.6666    7.9555 C   0  0  0  0  0  0  0  0  0  0  0  0
   -9.5060   -7.7661    8.0242 C   0  0  0  0  0  0  0  0  0  0  0  0
   -9.8067   -7.0962    9.2419 C   0  0  0  0  0  0  0  0  0  0  0  0
   -9.0148   -7.3458   10.4028 C   0  0  0  0  0  0  0  0  0  0  0  0
   -7.9168   -8.2459   10.3272 C   0  0  0  0  0  0  0  0  0  0  0  0
   -5.5909  -11.4875    3.5182 C   0  0  0  0  0  0  0  0  0  0  0  0
   -5.2711  -10.8716    4.7495 C   0  0  0  0  0  0  0  0  0  0  0  0
   -6.7658   -9.6976    6.4676 C   0  0  0  0  0  0  0  0  0  0  0  0
   -8.1081   -9.3319    6.7588 C   0  0  0  0  0  0  0  0  0  0  0  0
   -9.1446   -9.6480    5.8380 C   0  0  0  0  0  0  0  0  0  0  0  0
   -8.8388  -10.3305    4.6296 C   0  0  0  0  0  0  0  0  0  0  0  0
   -7.4894  -10.7095    4.3460 C   0  0  0  0  0  0  0  0  0  0  0  0
   -6.4625  -10.3971    5.2555 C   0  0  0  0  0  0  0  0  0  0  0  0
  1  6  1  0  0  0  0
  2  4  1  0  0  0  0
  3  7  1  0  0  0  0
  4  5  1  0  0  0  0
  6  2  1  0  0  0  0
  7  8  1  0  0  0  0
  8  9  1  0  0  0  0
  9 10  1  0  0  0  0
 10 11  1  0  0  0  0
 10 12  1  0  0  0  0
 11 13  1  0  0  0  0
 13 15  1  0  0  0  0
 14 12  1  0  0  0  0
 15 14  1  0  0  0  0
 16 18  2  0  0  0  0
 16 22  1  0  0  0  0
 17 23  1  0  0  0  0
 17 29  1  0  0  0  0
 18 19  1  0  0  0  0
 18 26  1  0  0  0  0
 19 20  2  0  0  0  0
 20  3  1  0  0  0  0
 20 21  1  0  0  0  0
 21  5  1  0  0  0  0
 21 22  2  0  0  0  0
 23 24  2  0  0  0  0
 24 30  1  0  0  0  0
 25 26  2  0  0  0  0
 25 30  1  0  0  0  0
 26 27  1  0  0  0  0
 27 28  2  0  0  0  0
 28 29  1  0  0  0  0
 29 30  2  0  0  0  0
M  END
>  <CHROM.1>
46.11796974,-145.31832425,168.49369183,129.53769720,-169.95181112,99.48444405
-56.32947109,-64.94276784,-29.92640796,-17.60234439,84.84348237,-9.50186078
-7.07976527,8.87181161,-2.71409023,1.09227887,-1.28240034

>  <Name>
1uts_lig

>  <RI>
0

>  <Rbt.Current_Directory>
/home/itssahil/PROJECTS/Mol_Feturizer/New_Systems/rnas/1uts

>  <Rbt.Executable>
rbdock ($Id: //depot/dev/client3/rdock/2013.1/src/exe/rbdock.cxx#4 $)

>  <Rbt.Library>
libRbt.so (2013.1, Build901 2013/11/27)

>  <Rbt.Parameter_File>
/export/apps/rDock/src/rDock_2013.1_src/data/scripts/dock_solv.prm

>  <Rbt.Receptor>
prm/blind_docking_80.prm

>  <SCORE>
-20.1402

>  <SCORE.INTER>
-24.9517

>  <SCORE.INTER.CONST>
1

>  <SCORE.INTER.POLAR>
-1.04378

>  <SCORE.INTER.ROT>
10

>  <SCORE.INTER.SOLV>
8.05469

>  <SCORE.INTER.VDW>
-26.1068

>  <SCORE.INTER.norm>
-0.831723

>  <SCORE.INTRA>
4.15081

>  <SCORE.INTRA.DIHEDRAL>
2.78366

>  <SCORE.INTRA.DIHEDRAL.0>
18.0451

>  <SCORE.INTRA.POLAR>
0.196815

>  <SCORE.INTRA.POLAR.0>
-0.196815

>  <SCORE.INTRA.REPUL>
0

>  <SCORE.INTRA.REPUL.0>
0

>  <SCORE.INTRA.SOLV>
-0.29685

>  <SCORE.INTRA.SOLV.lig_0>
-14.7906

>  <SCORE.INTRA.VDW>
2.23823

>  <SCORE.INTRA.VDW.0>
-0.411701

>  <SCORE.INTRA.norm>
0.13836

>  <SCORE.RESTR>
0.660698

>  <SCORE.RESTR.CAVITY>
0.660698

>  <SCORE.RESTR.norm>
0.0220233

>  <SCORE.SYSTEM>
0

>  <SCORE.SYSTEM.CONST>
0

>  <SCORE.SYSTEM.DIHEDRAL>
0

>  <SCORE.SYSTEM.SOLV>
0

>  <SCORE.SYSTEM.norm>
0

>  <SCORE.heavy>
30

>  <SCORE.norm>
-0.67134

>  <RMSD>
17.929

$$$$
1uts_lig
 OpenBabel11021811413D
libRbt.so/2013.1/901 2013/11/27
 30 33  0  0  0  0  0  0  0  0999 V2000
  -10.2060   -9.7287   15.2151 N   0  0  0  0  0  0  0  0  0  0  0  0
  -10.8186   -7.6990   13.9731 C   0  0  0  0  0  0  0  0  0  0  0  0
  -11.9849   -6.8174    8.9740 C   0  0  0  0  0  0  0  0  0  0  0  0
  -10.5513   -8.3693   12.6224 C   0  0  0  0  0  0  0  0  0  0  0  0
  -10.7248   -7.4079   11.5711 O   0  0  0  0  0  0  0  0  0  0  0  0
   -9.8892   -8.2942   15.0324 C   0  0  0  0  0  0  0  0  0  0  0  0
  -11.7409   -5.3603    9.0711 N   0  0  0  0  0  0  0  0  0  0  0  0
  -13.0170   -4.6576    9.3689 C   0  0  0  0  0  0  0  0  0  0  0  0
  -12.8410   -3.1514    9.1543 C   0  0  0  0  0  0  0  0  0  0  0  0
  -11.4907   -2.7443    9.6037 N   0  0  0  0  0  0  0  0  0  0  0  0
  -11.4790   -2.6347   11.0909 C   0  0  0  0  0  0  0  0  0  0  0  0
  -11.1368   -1.4365    8.9830 C   0  0  0  0  0  0  0  0  0  0  0  0
  -10.0790   -2.2082   11.5612 C   0  0  0  0  0  0  0  0  0  0  0  0
   -9.7365   -1.0066    9.4562 C   0  0  0  0  0  0  0  0  0  0  0  0
   -9.7249   -0.8996   10.9417 N   0  0  0  0  0  0  0  0  0  0  0  0
   -8.2139   -9.0324    9.2715 C   0  0  0  0  0  0  0  0  0  0  0  0
   -6.4659  -10.7619    3.2839 N   0  0  0  0  0  0  0  0  0  0  0  0
   -8.7958   -8.7850    8.0052 C   0  0  0  0  0  0  0  0  0  0  0  0
  -10.0182   -8.0670    7.9160 C   0  0  0  0  0  0  0  0  0  0  0  0
  -10.6576   -7.5933    9.0943 C   0  0  0  0  0  0  0  0  0  0  0  0
  -10.0775   -7.8581   10.3713 C   0  0  0  0  0  0  0  0  0  0  0  0
   -8.8522   -8.5746   10.4542 C   0  0  0  0  0  0  0  0  0  0  0  0
   -7.5665  -11.5397    2.8581 C   0  0  0  0  0  0  0  0  0  0  0  0
   -8.6305  -11.4597    3.7850 C   0  0  0  0  0  0  0  0  0  0  0  0
   -8.8394  -10.1532    5.9790 C   0  0  0  0  0  0  0  0  0  0  0  0
   -8.1603   -9.2564    6.8479 C   0  0  0  0  0  0  0  0  0  0  0  0
   -6.8386   -8.8331    6.5376 C   0  0  0  0  0  0  0  0  0  0  0  0
   -6.1990   -9.3045    5.3594 C   0  0  0  0  0  0  0  0  0  0  0  0
   -6.8900  -10.1958    4.4801 C   0  0  0  0  0  0  0  0  0  0  0  0
   -8.1974  -10.6161    4.7857 C   0  0  0  0  0  0  0  0  0  0  0  0
  1  6  1  0  0  0  0
  2  4  1  0  0  0  0
  3  7  1  0  0  0  0
  4  5  1  0  0  0  0
  6  2  1  0  0  0  0
  7  8  1  0  0  0  0
  8  9  1  0  0  0  0
  9 10  1  0  0  0  0
 10 11  1  0  0  0  0
 10 12  1  0  0  0  0
 11 13  1  0  0  0  0
 13 15  1  0  0  0  0
 14 12  1  0  0  0  0
 15 14  1  0  0  0  0
 16 18  2  0  0  0  0
 16 22  1  0  0  0  0
 17 23  1  0  0  0  0
 17 29  1  0  0  0  0
 18 19  1  0  0  0  0
 18 26  1  0  0  0  0
 19 20  2  0  0  0  0
 20  3  1  0  0  0  0
 20 21  1  0  0  0  0
 21  5  1  0  0  0  0
 21 22  2  0  0  0  0
 23 24  2  0  0  0  0
 24 30  1  0  0  0  0
 25 26  2  0  0  0  0
 25 30  1  0  0  0  0
 26 27  1  0  0  0  0
 27 28  2  0  0  0  0
 28 29  1  0  0  0  0
 29 30  2  0  0  0  0
M  END
>  <CHROM.1>
-64.25134690,-145.23835080,-162.87820540,161.27653543,-64.03608675,-167.09052716
-37.44248052,-78.56916453,120.84886228,-99.68649695,143.83267448,-9.72560565
-7.02324359,9.00611692,-3.10183592,1.21429684,-0.83939242

>  <Name>
1uts_lig

>  <RI>
0

>  <Rbt.Current_Directory>
/home/itssahil/PROJECTS/Mol_Feturizer/New_Systems/rnas/1uts

>  <Rbt.Executable>
rbdock ($Id: //depot/dev/client3/rdock/2013.1/src/exe/rbdock.cxx#4 $)

>  <Rbt.Library>
libRbt.so (2013.1, Build901 2013/11/27)

>  <Rbt.Parameter_File>
/export/apps/rDock/src/rDock_2013.1_src/data/scripts/dock_solv.prm

>  <Rbt.Receptor>
prm/blind_docking_80.prm

>  <SCORE>
-35.6461

>  <SCORE.INTER>
-37.4985

>  <SCORE.INTER.CONST>
1

>  <SCORE.INTER.POLAR>
-2.35684

>  <SCORE.INTER.ROT>
10

>  <SCORE.INTER.SOLV>
8.96473

>  <SCORE.INTER.VDW>
-30.3978

>  <SCORE.INTER.norm>
-1.24995

>  <SCORE.INTRA>
1.84355

>  <SCORE.INTRA.DIHEDRAL>
-3.38434

>  <SCORE.INTRA.DIHEDRAL.0>
18.0451

>  <SCORE.INTRA.POLAR>
0.196815

>  <SCORE.INTRA.POLAR.0>
-0.196815

>  <SCORE.INTRA.REPUL>
0

>  <SCORE.INTRA.REPUL.0>
0

>  <SCORE.INTRA.SOLV>
-0.0637324

>  <SCORE.INTRA.SOLV.lig_0>
-14.7906

>  <SCORE.INTRA.VDW>
2.89842

>  <SCORE.INTRA.VDW.0>
-0.411701

>  <SCORE.INTRA.norm>
0.0614517

>  <SCORE.RESTR>
0.00883304

>  <SCORE.RESTR.CAVITY>
0.00883304

>  <SCORE.RESTR.norm>
0.000294435

>  <SCORE.SYSTEM>
0

>  <SCORE.SYSTEM.CONST>
0

>  <SCORE.SYSTEM.DIHEDRAL>
0

>  <SCORE.SYSTEM.SOLV>
0

>  <SCORE.SYSTEM.norm>
0

>  <SCORE.heavy>
30

>  <SCORE.norm>
-1.1882

>  <RMSD>
17.957

$$$$
1uts_lig
 OpenBabel11021811413D
libRbt.so/2013.1/901 2013/11/27
 30 33  0  0  0  0  0  0  0  0999 V2000
   -7.0258   -4.5136   12.5128 N   0  0  0  0  0  0  0  0  0  0  0  0
   -9.1468   -5.7355   12.2998 C   0  0  0  0  0  0  0  0  0  0  0  0
  -11.1033   -7.2793    8.4040 C   0  0  0  0  0  0  0  0  0  0  0  0
   -8.7936   -6.1880   10.8801 C   0  0  0  0  0  0  0  0  0  0  0  0
   -9.2514   -7.5337   10.6815 O   0  0  0  0  0  0  0  0  0  0  0  0
   -8.4984   -4.3787   12.5805 C   0  0  0  0  0  0  0  0  0  0  0  0
  -11.1090   -5.9164    7.8255 N   0  0  0  0  0  0  0  0  0  0  0  0
  -12.4271   -5.2735    8.0710 C   0  0  0  0  0  0  0  0  0  0  0  0
  -12.4987   -4.7751    9.5174 C   0  0  0  0  0  0  0  0  0  0  0  0
  -11.5403   -3.6625    9.7030 N   0  0  0  0  0  0  0  0  0  0  0  0
  -11.4854   -3.2959   11.1475 C   0  0  0  0  0  0  0  0  0  0  0  0
  -11.9750   -2.4943    8.8861 C   0  0  0  0  0  0  0  0  0  0  0  0
  -10.4936   -2.1378   11.3437 C   0  0  0  0  0  0  0  0  0  0  0  0
  -10.9847   -1.3327    9.0847 C   0  0  0  0  0  0  0  0  0  0  0  0
  -10.9285   -0.9687   10.5279 N   0  0  0  0  0  0  0  0  0  0  0  0
   -7.1379   -9.0979    7.9763 C   0  0  0  0  0  0  0  0  0  0  0  0
   -6.2357  -11.2229    2.0025 N   0  0  0  0  0  0  0  0  0  0  0  0
   -8.0049   -9.0109    6.8609 C   0  0  0  0  0  0  0  0  0  0  0  0
   -9.2887   -8.4208    7.0066 C   0  0  0  0  0  0  0  0  0  0  0  0
   -9.7047   -7.9143    8.2685 C   0  0  0  0  0  0  0  0  0  0  0  0
   -8.8352   -8.0178    9.3956 C   0  0  0  0  0  0  0  0  0  0  0  0
   -7.5500   -8.6067    9.2431 C   0  0  0  0  0  0  0  0  0  0  0  0
   -5.3945  -12.2139    2.5576 C   0  0  0  0  0  0  0  0  0  0  0  0
   -5.3958  -12.1449    3.9693 C   0  0  0  0  0  0  0  0  0  0  0  0
   -6.6605  -10.5890    5.5642 C   0  0  0  0  0  0  0  0  0  0  0  0
   -7.5885   -9.5137    5.6203 C   0  0  0  0  0  0  0  0  0  0  0  0
   -8.0985   -8.9541    4.4166 C   0  0  0  0  0  0  0  0  0  0  0  0
   -7.6826   -9.4708    3.1598 C   0  0  0  0  0  0  0  0  0  0  0  0
   -6.7596  -10.5618    3.1069 C   0  0  0  0  0  0  0  0  0  0  0  0
   -6.2535  -11.1164    4.2967 C   0  0  0  0  0  0  0  0  0  0  0  0
  1  6  1  0  0  0  0
  2  4  1  0  0  0  0
  3  7  1  0  0  0  0
  4  5  1  0  0  0  0
  6  2  1  0  0  0  0
  7  8  1  0  0  0  0
  8  9  1  0  0  0  0
  9 10  1  0  0  0  0
 10 11  1  0  0  0  0
 10 12  1  0  0  0  0
 11 13  1  0  0  0  0
 13 15  1  0  0  0  0
 14 12  1  0  0  0  0
 15 14  1  0  0  0  0
 16 18  2  0  0  0  0
 16 22  1  0  0  0  0
 17 23  1  0  0  0  0
 17 29  1  0  0  0  0
 18 19  1  0  0  0  0
 18 26  1  0  0  0  0
 19 20  2  0  0  0  0
 20  3  1  0  0  0  0
 20 21  1  0  0  0  0
 21  5  1  0  0  0  0
 21 22  2  0  0  0  0
 23 24  2  0  0  0  0
 24 30  1  0  0  0  0
 25 26  2  0  0  0  0
 25 30  1  0  0  0  0
 26 27  1  0  0  0  0
 27 28  2  0  0  0  0
 28 29  1  0  0  0  0
 29 30  2  0  0  0  0
M  END
>  <CHROM.1>
-50.19299063,172.40926370,-175.02220642,-175.29657978,-62.53609668,78.07182253
67.41650162,-172.83164625,28.48095133,-76.67059482,-94.22910627,-8.99647723
-6.90173010,8.03850991,-2.12378146,0.78284433,-1.99636489

>  <Name>
1uts_lig

>  <RI>
0

>  <Rbt.Current_Directory>
/home/itssahil/PROJECTS/Mol_Feturizer/New_Systems/rnas/1uts

>  <Rbt.Executable>
rbdock ($Id: //depot/dev/client3/rdock/2013.1/src/exe/rbdock.cxx#4 $)

>  <Rbt.Library>
libRbt.so (2013.1, Build901 2013/11/27)

>  <Rbt.Parameter_File>
/export/apps/rDock/src/rDock_2013.1_src/data/scripts/dock_solv.prm

>  <Rbt.Receptor>
prm/blind_docking_80.prm

>  <SCORE>
-18.2274

>  <SCORE.INTER>
-15.388

>  <SCORE.INTER.CONST>
1

>  <SCORE.INTER.POLAR>
-0.189752

>  <SCORE.INTER.ROT>
10

>  <SCORE.INTER.SOLV>
7.63378

>  <SCORE.INTER.VDW>
-22.4374

>  <SCORE.INTER.norm>
-0.512935

>  <SCORE.INTRA>
-3.25784

>  <SCORE.INTRA.DIHEDRAL>
-9.77204

>  <SCORE.INTRA.DIHEDRAL.0>
18.0451

>  <SCORE.INTRA.POLAR>
0.196815

>  <SCORE.INTRA.POLAR.0>
-0.196815

>  <SCORE.INTRA.REPUL>
0.0152109

>  <SCORE.INTRA.REPUL.0>
0

>  <SCORE.INTRA.SOLV>
-0.0084707

>  <SCORE.INTRA.SOLV.lig_0>
-14.7906

>  <SCORE.INTRA.VDW>
0.887186

>  <SCORE.INTRA.VDW.0>
-0.411701

>  <SCORE.INTRA.norm>
-0.108595

>  <SCORE.RESTR>
0.418469

>  <SCORE.RESTR.CAVITY>
0.418469

>  <SCORE.RESTR.norm>
0.013949

>  <SCORE.SYSTEM>
0

>  <SCORE.SYSTEM.CONST>
0

>  <SCORE.SYSTEM.DIHEDRAL>
0

>  <SCORE.SYSTEM.SOLV>
0

>  <SCORE.SYSTEM.norm>
0

>  <SCORE.heavy>
30

>  <SCORE.norm>
-0.60758

>  <RMSD>
17.958

$$$$
1uts_lig
 OpenBabel11021811413D
libRbt.so/2013.1/901 2013/11/27
 30 33  0  0  0  0  0  0  0  0999 V2000
  -11.4791   -6.4034   14.5564 N   0  0  0  0  0  0  0  0  0  0  0  0
  -10.5269   -6.3527   12.2919 C   0  0  0  0  0  0  0  0  0  0  0  0
   -9.8072   -5.2987    7.5948 C   0  0  0  0  0  0  0  0  0  0  0  0
   -9.8820   -7.2087   11.1979 C   0  0  0  0  0  0  0  0  0  0  0  0
   -9.1884   -6.3572   10.2740 O   0  0  0  0  0  0  0  0  0  0  0  0
  -10.9192   -7.2424   13.4729 C   0  0  0  0  0  0  0  0  0  0  0  0
  -11.2538   -5.5513    7.4064 N   0  0  0  0  0  0  0  0  0  0  0  0
  -12.0273   -4.3387    7.7836 C   0  0  0  0  0  0  0  0  0  0  0  0
  -12.0117   -4.1671    9.3053 C   0  0  0  0  0  0  0  0  0  0  0  0
  -11.6554   -2.7700    9.6399 N   0  0  0  0  0  0  0  0  0  0  0  0
  -10.2776   -2.4818    9.1475 C   0  0  0  0  0  0  0  0  0  0  0  0
  -11.7302   -2.5809   11.1163 C   0  0  0  0  0  0  0  0  0  0  0  0
   -9.9025   -1.0325    9.4967 C   0  0  0  0  0  0  0  0  0  0  0  0
  -11.3512   -1.1309   11.4674 C   0  0  0  0  0  0  0  0  0  0  0  0
   -9.9759   -0.8432   10.9732 N   0  0  0  0  0  0  0  0  0  0  0  0
   -7.6681   -9.0835    8.1557 C   0  0  0  0  0  0  0  0  0  0  0  0
   -6.2124  -11.7796    2.5416 N   0  0  0  0  0  0  0  0  0  0  0  0
   -7.9618   -8.6186    6.8515 C   0  0  0  0  0  0  0  0  0  0  0  0
   -8.6557   -7.3916    6.6769 C   0  0  0  0  0  0  0  0  0  0  0  0
   -9.0535   -6.6271    7.8079 C   0  0  0  0  0  0  0  0  0  0  0  0
   -8.7707   -7.1058    9.1224 C   0  0  0  0  0  0  0  0  0  0  0  0
   -8.0731   -8.3332    9.2910 C   0  0  0  0  0  0  0  0  0  0  0  0
   -5.0423  -12.2807    3.1559 C   0  0  0  0  0  0  0  0  0  0  0  0
   -4.8889  -11.7520    4.4576 C   0  0  0  0  0  0  0  0  0  0  0  0
   -6.3658  -10.1359    5.7885 C   0  0  0  0  0  0  0  0  0  0  0  0
   -7.5677   -9.3785    5.7412 C   0  0  0  0  0  0  0  0  0  0  0  0
   -8.3725   -9.3986    4.5690 C   0  0  0  0  0  0  0  0  0  0  0  0
   -7.9766  -10.1766    3.4476 C   0  0  0  0  0  0  0  0  0  0  0  0
   -6.7741  -10.9485    3.5034 C   0  0  0  0  0  0  0  0  0  0  0  0
   -5.9762  -10.9294    4.6620 C   0  0  0  0  0  0  0  0  0  0  0  0
  1  6  1  0  0  0  0
  2  4  1  0  0  0  0
  3  7  1  0  0  0  0
  4  5  1  0  0  0  0
  6  2  1  0  0  0  0
  7  8  1  0  0  0  0
  8  9  1  0  0  0  0
  9 10  1  0  0  0  0
 10 11  1  0  0  0  0
 10 12  1  0  0  0  0
 11 13  1  0  0  0  0
 13 15  1  0  0  0  0
 14 12  1  0  0  0  0
 15 14  1  0  0  0  0
 16 18  2  0  0  0  0
 16 22  1  0  0  0  0
 17 23  1  0  0  0  0
 17 29  1  0  0  0  0
 18 19  1  0  0  0  0
 18 26  1  0  0  0  0
 19 20  2  0  0  0  0
 20  3  1  0  0  0  0
 20 21  1  0  0  0  0
 21  5  1  0  0  0  0
 21 22  2  0  0  0  0
 23 24  2  0  0  0  0
 24 30  1  0  0  0  0
 25 26  2  0  0  0  0
 25 30  1  0  0  0  0
 26 27  1  0  0  0  0
 27 28  2  0  0  0  0
 28 29  1  0  0  0  0
 29 30  2  0  0  0  0
M  END
>  <CHROM.1>
70.75094187,-164.09839183,155.69449685,-170.21054910,177.14943224,-72.29689150
131.61247470,-62.79532376,-33.52465545,83.66090089,130.03542346,-9.15792168
-6.76567160,8.20707965,-2.98404277,1.14214633,-1.00351204

>  <Name>
1uts_lig

>  <RI>
0

>  <Rbt.Current_Directory>
/home/itssahil/PROJECTS/Mol_Feturizer/New_Systems/rnas/1uts

>  <Rbt.Executable>
rbdock ($Id: //depot/dev/client3/rdock/2013.1/src/exe/rbdock.cxx#4 $)

>  <Rbt.Library>
libRbt.so (2013.1, Build901 2013/11/27)

>  <Rbt.Parameter_File>
/export/apps/rDock/src/rDock_2013.1_src/data/scripts/dock_solv.prm

>  <Rbt.Receptor>
prm/blind_docking_80.prm

>  <SCORE>
-25.9556

>  <SCORE.INTER>
-27.1735

>  <SCORE.INTER.CONST>
1

>  <SCORE.INTER.POLAR>
-1.9469

>  <SCORE.INTER.ROT>
10

>  <SCORE.INTER.SOLV>
7.68257

>  <SCORE.INTER.VDW>
-24.4535

>  <SCORE.INTER.norm>
-0.905784

>  <SCORE.INTRA>
0.0773741

>  <SCORE.INTRA.DIHEDRAL>
-4.66727

>  <SCORE.INTRA.DIHEDRAL.0>
18.0451

>  <SCORE.INTRA.POLAR>
0.196815

>  <SCORE.INTRA.POLAR.0>
-0.196815

>  <SCORE.INTRA.REPUL>
0

>  <SCORE.INTRA.REPUL.0>
0

>  <SCORE.INTRA.SOLV>
-0.395489

>  <SCORE.INTRA.SOLV.lig_0>
-14.7906

>  <SCORE.INTRA.VDW>
1.93958

>  <SCORE.INTRA.VDW.0>
-0.411701

>  <SCORE.INTRA.norm>
0.00257914

>  <SCORE.RESTR>
1.14057

>  <SCORE.RESTR.CAVITY>
1.14057

>  <SCORE.RESTR.norm>
0.038019

>  <SCORE.SYSTEM>
0

>  <SCORE.SYSTEM.CONST>
0

>  <SCORE.SYSTEM.DIHEDRAL>
0

>  <SCORE.SYSTEM.SOLV>
0

>  <SCORE.SYSTEM.norm>
0

>  <SCORE.heavy>
30

>  <SCORE.norm>
-0.865185

>  <RMSD>
17.959

$$$$
1uts_lig
 OpenBabel11021811413D
libRbt.so/2013.1/901 2013/11/27
 30 33  0  0  0  0  0  0  0  0999 V2000
   -4.1776  -12.0737    4.3979 N   0  0  0  0  0  0  0  0  0  0  0  0
   -5.6282  -10.1730    4.9635 C   0  0  0  0  0  0  0  0  0  0  0  0
   -9.3859   -7.0528    5.0108 C   0  0  0  0  0  0  0  0  0  0  0  0
   -6.5684   -9.2266    4.2114 C   0  0  0  0  0  0  0  0  0  0  0  0
   -6.5830   -7.9498    4.8668 O   0  0  0  0  0  0  0  0  0  0  0  0
   -5.5298  -11.5011    4.2108 C   0  0  0  0  0  0  0  0  0  0  0  0
   -8.9172   -5.6830    4.7009 N   0  0  0  0  0  0  0  0  0  0  0  0
   -9.7301   -4.6928    5.4557 C   0  0  0  0  0  0  0  0  0  0  0  0
   -9.2362   -4.6130    6.9032 C   0  0  0  0  0  0  0  0  0  0  0  0
  -10.3077   -4.0566    7.7594 N   0  0  0  0  0  0  0  0  0  0  0  0
   -9.7072   -3.5249    9.0165 C   0  0  0  0  0  0  0  0  0  0  0  0
  -11.2989   -5.1258    8.0681 C   0  0  0  0  0  0  0  0  0  0  0  0
  -10.8178   -2.9495    9.9102 C   0  0  0  0  0  0  0  0  0  0  0  0
  -12.4096   -4.5517    8.9660 C   0  0  0  0  0  0  0  0  0  0  0  0
  -11.8088   -4.0187   10.2203 N   0  0  0  0  0  0  0  0  0  0  0  0
   -7.2758   -8.6381    8.5107 C   0  0  0  0  0  0  0  0  0  0  0  0
  -11.2560   -8.2522   13.5921 N   0  0  0  0  0  0  0  0  0  0  0  0
   -8.6170   -8.2009    8.6261 C   0  0  0  0  0  0  0  0  0  0  0  0
   -9.2947   -7.6878    7.4881 C   0  0  0  0  0  0  0  0  0  0  0  0
   -8.6313   -7.6149    6.2326 C   0  0  0  0  0  0  0  0  0  0  0  0
   -7.2736   -8.0411    6.1221 C   0  0  0  0  0  0  0  0  0  0  0  0
   -6.6013   -8.5567    7.2640 C   0  0  0  0  0  0  0  0  0  0  0  0
  -11.3113   -6.8517   13.7752 C   0  0  0  0  0  0  0  0  0  0  0  0
  -10.6921   -6.1766   12.6989 C   0  0  0  0  0  0  0  0  0  0  0  0
   -9.5812   -7.0837   10.5758 C   0  0  0  0  0  0  0  0  0  0  0  0
   -9.2641   -8.2746    9.8676 C   0  0  0  0  0  0  0  0  0  0  0  0
   -9.6105   -9.5396   10.4171 C   0  0  0  0  0  0  0  0  0  0  0  0
  -10.2746   -9.6125   11.6714 C   0  0  0  0  0  0  0  0  0  0  0  0
  -10.6047   -8.4121   12.3749 C   0  0  0  0  0  0  0  0  0  0  0  0
  -10.2624   -7.1597   11.8331 C   0  0  0  0  0  0  0  0  0  0  0  0
  1  6  1  0  0  0  0
  2  4  1  0  0  0  0
  3  7  1  0  0  0  0
  4  5  1  0  0  0  0
  6  2  1  0  0  0  0
  7  8  1  0  0  0  0
  8  9  1  0  0  0  0
  9 10  1  0  0  0  0
 10 11  1  0  0  0  0
 10 12  1  0  0  0  0
 11 13  1  0  0  0  0
 13 15  1  0  0  0  0
 14 12  1  0  0  0  0
 15 14  1  0  0  0  0
 16 18  2  0  0  0  0
 16 22  1  0  0  0  0
 17 23  1  0  0  0  0
 17 29  1  0  0  0  0
 18 19  1  0  0  0  0
 18 26  1  0  0  0  0
 19 20  2  0  0  0  0
 20  3  1  0  0  0  0
 20 21  1  0  0  0  0
 21  5  1  0  0  0  0
 21 22  2  0  0  0  0
 23 24  2  0  0  0  0
 24 30  1  0  0  0  0
 25 26  2  0  0  0  0
 25 30  1  0  0  0  0
 26 27  1  0  0  0  0
 27 28  2  0  0  0  0
 28 29  1  0  0  0  0
 29 30  2  0  0  0  0
M  END
>  <CHROM.1>
-174.77939008,-175.86346483,-89.39880255,-70.95037757,147.63320775,79.50038187
-158.76655626,-159.79511409,110.52572587,104.84584397,-99.58895664,-9.05406772
-7.21848013,8.21905354,-0.32204611,-0.95591847,2.23129615

>  <Name>
1uts_lig

>  <RI>
0

>  <Rbt.Current_Directory>
/home/itssahil/PROJECTS/Mol_Feturizer/New_Systems/rnas/1uts

>  <Rbt.Executable>
rbdock ($Id: //depot/dev/client3/rdock/2013.1/src/exe/rbdock.cxx#4 $)

>  <Rbt.Library>
libRbt.so (2013.1, Build901 2013/11/27)

>  <Rbt.Parameter_File>
/export/apps/rDock/src/rDock_2013.1_src/data/scripts/dock_solv.prm

>  <Rbt.Receptor>
prm/blind_docking_100.prm

>  <SCORE>
-42.5751

>  <SCORE.INTER>
-43.5484

>  <SCORE.INTER.CONST>
1

>  <SCORE.INTER.POLAR>
-3.05069

>  <SCORE.INTER.ROT>
10

>  <SCORE.INTER.SOLV>
12.0851

>  <SCORE.INTER.VDW>
-33.1583

>  <SCORE.INTER.norm>
-1.45161

>  <SCORE.INTRA>
-0.367075

>  <SCORE.INTRA.DIHEDRAL>
0.411389

>  <SCORE.INTRA.DIHEDRAL.0>
18.0451

>  <SCORE.INTRA.POLAR>
0.196815

>  <SCORE.INTRA.POLAR.0>
-0.196815

>  <SCORE.INTRA.REPUL>
0

>  <SCORE.INTRA.REPUL.0>
0

>  <SCORE.INTRA.SOLV>
-0.160198

>  <SCORE.INTRA.SOLV.lig_0>
-14.7906

>  <SCORE.INTRA.VDW>
-1.16184

>  <SCORE.INTRA.VDW.0>
-0.411701

>  <SCORE.INTRA.norm>
-0.0122358

>  <SCORE.RESTR>
1.34038

>  <SCORE.RESTR.CAVITY>
1.34038

>  <SCORE.RESTR.norm>
0.0446792

>  <SCORE.SYSTEM>
0

>  <SCORE.SYSTEM.CONST>
0

>  <SCORE.SYSTEM.DIHEDRAL>
0

>  <SCORE.SYSTEM.SOLV>
0

>  <SCORE.SYSTEM.norm>
0

>  <SCORE.heavy>
30

>  <SCORE.norm>
-1.41917

>  <RMSD>
17.961

$$$$
1uts_lig
 OpenBabel11021811413D
libRbt.so/2013.1/901 2013/11/27
 30 33  0  0  0  0  0  0  0  0999 V2000
   -4.5555  -11.9295    3.4334 N   0  0  0  0  0  0  0  0  0  0  0  0
   -5.6922  -10.5715    5.1366 C   0  0  0  0  0  0  0  0  0  0  0  0
   -9.0520   -6.6414    5.1916 C   0  0  0  0  0  0  0  0  0  0  0  0
   -6.7555   -9.7868    4.3626 C   0  0  0  0  0  0  0  0  0  0  0  0
   -6.7349   -8.4148    4.7832 O   0  0  0  0  0  0  0  0  0  0  0  0
   -5.5469  -11.9692    4.5320 C   0  0  0  0  0  0  0  0  0  0  0  0
  -10.4126   -6.1987    5.5724 N   0  0  0  0  0  0  0  0  0  0  0  0
  -10.3217   -5.1312    6.6036 C   0  0  0  0  0  0  0  0  0  0  0  0
  -11.7285   -4.6836    7.0109 C   0  0  0  0  0  0  0  0  0  0  0  0
  -11.7192   -4.2595    8.4290 N   0  0  0  0  0  0  0  0  0  0  0  0
  -10.6875   -3.1996    8.6192 C   0  0  0  0  0  0  0  0  0  0  0  0
  -11.4222   -5.4357    9.2946 C   0  0  0  0  0  0  0  0  0  0  0  0
  -10.6723   -2.7592   10.0919 C   0  0  0  0  0  0  0  0  0  0  0  0
  -11.4030   -4.9952   10.7694 C   0  0  0  0  0  0  0  0  0  0  0  0
  -10.3740   -3.9350   10.9581 N   0  0  0  0  0  0  0  0  0  0  0  0
   -7.2389   -8.8848    8.4922 C   0  0  0  0  0  0  0  0  0  0  0  0
  -10.4407   -7.7517   13.9432 N   0  0  0  0  0  0  0  0  0  0  0  0
   -8.3403   -8.0293    8.7337 C   0  0  0  0  0  0  0  0  0  0  0  0
   -8.9228   -7.3049    7.6597 C   0  0  0  0  0  0  0  0  0  0  0  0
   -8.4051   -7.4386    6.3422 C   0  0  0  0  0  0  0  0  0  0  0  0
   -7.2841   -8.2893    6.1037 C   0  0  0  0  0  0  0  0  0  0  0  0
   -6.7071   -9.0144    7.1821 C   0  0  0  0  0  0  0  0  0  0  0  0
  -11.1815   -8.9545   13.8975 C   0  0  0  0  0  0  0  0  0  0  0  0
  -11.0550   -9.5781   12.6354 C   0  0  0  0  0  0  0  0  0  0  0  0
   -9.7232   -8.8890   10.5580 C   0  0  0  0  0  0  0  0  0  0  0  0
   -8.8444   -7.9014   10.0357 C   0  0  0  0  0  0  0  0  0  0  0  0
   -8.4721   -6.7880   10.8381 C   0  0  0  0  0  0  0  0  0  0  0  0
   -8.9764   -6.6643   12.1610 C   0  0  0  0  0  0  0  0  0  0  0  0
   -9.8494   -7.6667   12.6885 C   0  0  0  0  0  0  0  0  0  0  0  0
  -10.2192   -8.7686   11.8959 C   0  0  0  0  0  0  0  0  0  0  0  0
  1  6  1  0  0  0  0
  2  4  1  0  0  0  0
  3  7  1  0  0  0  0
  4  5  1  0  0  0  0
  6  2  1  0  0  0  0
  7  8  1  0  0  0  0
  8  9  1  0  0  0  0
  9 10  1  0  0  0  0
 10 11  1  0  0  0  0
 10 12  1  0  0  0  0
 11 13  1  0  0  0  0
 13 15  1  0  0  0  0
 14 12  1  0  0  0  0
 15 14  1  0  0  0  0
 16 18  2  0  0  0  0
 16 22  1  0  0  0  0
 17 23  1  0  0  0  0
 17 29  1  0  0  0  0
 18 19  1  0  0  0  0
 18 26  1  0  0  0  0
 19 20  2  0  0  0  0
 20  3  1  0  0  0  0
 20 21  1  0  0  0  0
 21  5  1  0  0  0  0
 21 22  2  0  0  0  0
 23 24  2  0  0  0  0
 24 30  1  0  0  0  0
 25 26  2  0  0  0  0
 25 30  1  0  0  0  0
 26 27  1  0  0  0  0
 27 28  2  0  0  0  0
 28 29  1  0  0  0  0
 29 30  2  0  0  0  0
M  END
>  <CHROM.1>
-71.04093588,-170.54204866,70.87157083,-72.24477219,87.74342229,-179.33175765
148.65767779,55.53398164,-80.61085413,-19.21885031,-122.24959764,-9.07859182
-7.36673638,8.49654171,-0.45717683,-0.97421296,2.04750778

>  <Name>
1uts_lig

>  <RI>
0

>  <Rbt.Current_Directory>
/home/itssahil/PROJECTS/Mol_Feturizer/New_Systems/rnas/1uts

>  <Rbt.Executable>
rbdock ($Id: //depot/dev/client3/rdock/2013.1/src/exe/rbdock.cxx#4 $)

>  <Rbt.Library>
libRbt.so (2013.1, Build901 2013/11/27)

>  <Rbt.Parameter_File>
/export/apps/rDock/src/rDock_2013.1_src/data/scripts/dock_solv.prm

>  <Rbt.Receptor>
prm/blind_docking_100.prm

>  <SCORE>
-22.9571

>  <SCORE.INTER>
-29.1005

>  <SCORE.INTER.CONST>
1

>  <SCORE.INTER.POLAR>
-1.84464

>  <SCORE.INTER.ROT>
10

>  <SCORE.INTER.SOLV>
8.85034

>  <SCORE.INTER.VDW>
-26.4683

>  <SCORE.INTER.norm>
-0.970016

>  <SCORE.INTRA>
5.22838

>  <SCORE.INTRA.DIHEDRAL>
-2.12875

>  <SCORE.INTRA.DIHEDRAL.0>
18.0451

>  <SCORE.INTRA.POLAR>
0.196815

>  <SCORE.INTRA.POLAR.0>
-0.196815

>  <SCORE.INTRA.REPUL>
0

>  <SCORE.INTRA.REPUL.0>
0

>  <SCORE.INTRA.SOLV>
-0.103338

>  <SCORE.INTRA.SOLV.lig_0>
-14.7906

>  <SCORE.INTRA.VDW>
5.67525

>  <SCORE.INTRA.VDW.0>
-0.411701

>  <SCORE.INTRA.norm>
0.174279

>  <SCORE.RESTR>
0.915032

>  <SCORE.RESTR.CAVITY>
0.915032

>  <SCORE.RESTR.norm>
0.0305011

>  <SCORE.SYSTEM>
0

>  <SCORE.SYSTEM.CONST>
0

>  <SCORE.SYSTEM.DIHEDRAL>
0

>  <SCORE.SYSTEM.SOLV>
0

>  <SCORE.SYSTEM.norm>
0

>  <SCORE.heavy>
30

>  <SCORE.norm>
-0.765236

>  <RMSD>
17.978

$$$$
1uts_lig
 OpenBabel11021811413D
libRbt.so/2013.1/901 2013/11/27
 30 33  0  0  0  0  0  0  0  0999 V2000
   -9.0804   -9.6252    4.4168 N   0  0  0  0  0  0  0  0  0  0  0  0
   -7.7470   -8.4319    2.7329 C   0  0  0  0  0  0  0  0  0  0  0  0
   -9.0719   -5.5584    5.3886 C   0  0  0  0  0  0  0  0  0  0  0  0
   -6.5770   -8.3167    3.7143 C   0  0  0  0  0  0  0  0  0  0  0  0
   -6.7428   -7.1383    4.5166 O   0  0  0  0  0  0  0  0  0  0  0  0
   -9.0651   -8.4560    3.5089 C   0  0  0  0  0  0  0  0  0  0  0  0
   -9.6049   -4.5020    6.2785 N   0  0  0  0  0  0  0  0  0  0  0  0
  -10.9798   -4.8620    6.7156 C   0  0  0  0  0  0  0  0  0  0  0  0
  -11.0957   -4.7130    8.2354 C   0  0  0  0  0  0  0  0  0  0  0  0
  -10.9546   -3.2860    8.6026 N   0  0  0  0  0  0  0  0  0  0  0  0
   -9.5989   -3.0581    9.1804 C   0  0  0  0  0  0  0  0  0  0  0  0
  -12.0090   -2.9237    9.5914 C   0  0  0  0  0  0  0  0  0  0  0  0
   -9.4500   -1.5776    9.5666 C   0  0  0  0  0  0  0  0  0  0  0  0
  -11.8586   -1.4423    9.9818 C   0  0  0  0  0  0  0  0  0  0  0  0
  -10.5035   -1.2149   10.5565 N   0  0  0  0  0  0  0  0  0  0  0  0
   -7.4811   -8.8628    7.7896 C   0  0  0  0  0  0  0  0  0  0  0  0
  -11.0061   -9.1728   13.2206 N   0  0  0  0  0  0  0  0  0  0  0  0
   -8.5911   -8.1167    8.2528 C   0  0  0  0  0  0  0  0  0  0  0  0
   -9.1013   -7.0469    7.4700 C   0  0  0  0  0  0  0  0  0  0  0  0
   -8.5026   -6.7249    6.2211 C   0  0  0  0  0  0  0  0  0  0  0  0
   -7.3732   -7.4681    5.7635 C   0  0  0  0  0  0  0  0  0  0  0  0
   -6.8688   -8.5400    6.5499 C   0  0  0  0  0  0  0  0  0  0  0  0
  -11.2173   -7.8283   13.6019 C   0  0  0  0  0  0  0  0  0  0  0  0
  -10.7246   -6.9409   12.6182 C   0  0  0  0  0  0  0  0  0  0  0  0
   -9.6008   -7.4046   10.3630 C   0  0  0  0  0  0  0  0  0  0  0  0
   -9.1752   -8.4390    9.4859 C   0  0  0  0  0  0  0  0  0  0  0  0
   -9.3492   -9.8004    9.8581 C   0  0  0  0  0  0  0  0  0  0  0  0
   -9.9499  -10.1258   11.1043 C   0  0  0  0  0  0  0  0  0  0  0  0
  -10.3896   -9.0830   11.9784 C   0  0  0  0  0  0  0  0  0  0  0  0
  -10.2177   -7.7355   11.6121 C   0  0  0  0  0  0  0  0  0  0  0  0
  1  6  1  0  0  0  0
  2  4  1  0  0  0  0
  3  7  1  0  0  0  0
  4  5  1  0  0  0  0
  6  2  1  0  0  0  0
  7  8  1  0  0  0  0
  8  9  1  0  0  0  0
  9 10  1  0  0  0  0
 10 11  1  0  0  0  0
 10 12  1  0  0  0  0
 11 13  1  0  0  0  0
 13 15  1  0  0  0  0
 14 12  1  0  0  0  0
 15 14  1  0  0  0  0
 16 18  2  0  0  0  0
 16 22  1  0  0  0  0
 17 23  1  0  0  0  0
 17 29  1  0  0  0  0
 18 19  1  0  0  0  0
 18 26  1  0  0  0  0
 19 20  2  0  0  0  0
 20  3  1  0  0  0  0
 20 21  1  0  0  0  0
 21  5  1  0  0  0  0
 21 22  2  0  0  0  0
 23 24  2  0  0  0  0
 24 30  1  0  0  0  0
 25 26  2  0  0  0  0
 25 30  1  0  0  0  0
 26 27  1  0  0  0  0
 27 28  2  0  0  0  0
 28 29  1  0  0  0  0
 29 30  2  0  0  0  0
M  END
>  <CHROM.1>
-160.85003961,-57.23666148,-82.33346115,95.74197410,-60.56097647,130.82198847
65.98671156,-104.35447378,139.60159058,32.57915443,-130.22172309,-9.47488678
-6.52651100,8.21821011,-0.10653066,-1.17774702,2.55084765

>  <Name>
1uts_lig

>  <RI>
0

>  <Rbt.Current_Directory>
/home/itssahil/PROJECTS/Mol_Feturizer/New_Systems/rnas/1uts

>  <Rbt.Executable>
rbdock ($Id: //depot/dev/client3/rdock/2013.1/src/exe/rbdock.cxx#4 $)

>  <Rbt.Library>
libRbt.so (2013.1, Build901 2013/11/27)

>  <Rbt.Parameter_File>
/export/apps/rDock/src/rDock_2013.1_src/data/scripts/dock_solv.prm

>  <Rbt.Receptor>
prm/blind_docking_60.prm

>  <SCORE>
-24.1366

>  <SCORE.INTER>
-30.3088

>  <SCORE.INTER.CONST>
1

>  <SCORE.INTER.POLAR>
-2.12391

>  <SCORE.INTER.ROT>
10

>  <SCORE.INTER.SOLV>
10.8099

>  <SCORE.INTER.VDW>
-26.9961

>  <SCORE.INTER.norm>
-1.01029

>  <SCORE.INTRA>
4.45099

>  <SCORE.INTRA.DIHEDRAL>
0.625573

>  <SCORE.INTRA.DIHEDRAL.0>
18.0451

>  <SCORE.INTRA.POLAR>
0.196815

>  <SCORE.INTRA.POLAR.0>
-0.196815

>  <SCORE.INTRA.REPUL>
0

>  <SCORE.INTRA.REPUL.0>
0

>  <SCORE.INTRA.SOLV>
0.563761

>  <SCORE.INTRA.SOLV.lig_0>
-14.7906

>  <SCORE.INTRA.VDW>
3.18715

>  <SCORE.INTRA.VDW.0>
-0.411701

>  <SCORE.INTRA.norm>
0.148366

>  <SCORE.RESTR>
1.7212

>  <SCORE.RESTR.CAVITY>
1.7212

>  <SCORE.RESTR.norm>
0.0573733

>  <SCORE.SYSTEM>
0

>  <SCORE.SYSTEM.CONST>
0

>  <SCORE.SYSTEM.DIHEDRAL>
0

>  <SCORE.SYSTEM.SOLV>
0

>  <SCORE.SYSTEM.norm>
0

>  <SCORE.heavy>
30

>  <SCORE.norm>
-0.804553

>  <RMSD>
17.979

$$$$
1uts_lig
 OpenBabel11021811413D
libRbt.so/2013.1/901 2013/11/27
 30 33  0  0  0  0  0  0  0  0999 V2000
  -10.5346   -9.4096   14.7344 N   0  0  0  0  0  0  0  0  0  0  0  0
  -11.2772   -8.0107   12.8560 C   0  0  0  0  0  0  0  0  0  0  0  0
  -10.3093   -4.0680    9.9169 C   0  0  0  0  0  0  0  0  0  0  0  0
  -11.5007   -6.5580   12.4257 C   0  0  0  0  0  0  0  0  0  0  0  0
  -10.2312   -5.9273   12.2012 O   0  0  0  0  0  0  0  0  0  0  0  0
  -10.4999   -8.0402   14.1732 C   0  0  0  0  0  0  0  0  0  0  0  0
  -11.7779   -4.1272    9.7391 N   0  0  0  0  0  0  0  0  0  0  0  0
  -12.1799   -3.2605    8.5997 C   0  0  0  0  0  0  0  0  0  0  0  0
  -13.0332   -4.0639    7.6138 C   0  0  0  0  0  0  0  0  0  0  0  0
  -12.2140   -5.1443    7.0200 N   0  0  0  0  0  0  0  0  0  0  0  0
  -12.2977   -5.0651    5.5332 C   0  0  0  0  0  0  0  0  0  0  0  0
  -12.7140   -6.4638    7.4995 C   0  0  0  0  0  0  0  0  0  0  0  0
  -11.4510   -6.1883    4.9129 C   0  0  0  0  0  0  0  0  0  0  0  0
  -11.8693   -7.5896    6.8760 C   0  0  0  0  0  0  0  0  0  0  0  0
  -11.9514   -7.5083    5.3910 N   0  0  0  0  0  0  0  0  0  0  0  0
   -8.5704   -8.0780    9.5844 C   0  0  0  0  0  0  0  0  0  0  0  0
   -6.6661   -8.8498    3.4362 N   0  0  0  0  0  0  0  0  0  0  0  0
   -8.6045   -7.2216    8.4581 C   0  0  0  0  0  0  0  0  0  0  0  0
   -9.1699   -5.9236    8.5726 C   0  0  0  0  0  0  0  0  0  0  0  0
   -9.6988   -5.4805    9.8158 C   0  0  0  0  0  0  0  0  0  0  0  0
   -9.6781   -6.3517   10.9462 C   0  0  0  0  0  0  0  0  0  0  0  0
   -9.1081   -7.6488   10.8264 C   0  0  0  0  0  0  0  0  0  0  0  0
   -7.6780   -8.2476    2.6545 C   0  0  0  0  0  0  0  0  0  0  0  0
   -8.6291   -7.5973    3.4731 C   0  0  0  0  0  0  0  0  0  0  0  0
   -8.7471   -7.3462    6.0201 C   0  0  0  0  0  0  0  0  0  0  0  0
   -8.0824   -7.6660    7.2352 C   0  0  0  0  0  0  0  0  0  0  0  0
   -6.8840   -8.4311    7.2075 C   0  0  0  0  0  0  0  0  0  0  0  0
   -6.3508   -8.8731    5.9666 C   0  0  0  0  0  0  0  0  0  0  0  0
   -7.0143   -8.5379    4.7449 C   0  0  0  0  0  0  0  0  0  0  0  0
   -8.2003   -7.7816    4.7704 C   0  0  0  0  0  0  0  0  0  0  0  0
  1  6  1  0  0  0  0
  2  4  1  0  0  0  0
  3  7  1  0  0  0  0
  4  5  1  0  0  0  0
  6  2  1  0  0  0  0
  7  8  1  0  0  0  0
  8  9  1  0  0  0  0
  9 10  1  0  0  0  0
 10 11  1  0  0  0  0
 10 12  1  0  0  0  0
 11 13  1  0  0  0  0
 13 15  1  0  0  0  0
 14 12  1  0  0  0  0
 15 14  1  0  0  0  0
 16 18  2  0  0  0  0
 16 22  1  0  0  0  0
 17 23  1  0  0  0  0
 17 29  1  0  0  0  0
 18 19  1  0  0  0  0
 18 26  1  0  0  0  0
 19 20  2  0  0  0  0
 20  3  1  0  0  0  0
 20 21  1  0  0  0  0
 21  5  1  0  0  0  0
 21 22  2  0  0  0  0
 23 24  2  0  0  0  0
 24 30  1  0  0  0  0
 25 26  2  0  0  0  0
 25 30  1  0  0  0  0
 26 27  1  0  0  0  0
 27 28  2  0  0  0  0
 28 29  1  0  0  0  0
 29 30  2  0  0  0  0
M  END
>  <CHROM.1>
-91.05430692,62.01500466,-122.43382982,76.50864319,167.99755154,127.30935057
-64.63857983,-126.96647856,140.47115380,95.68457243,104.56430832,-9.99324982
-6.83310002,8.19546788,-1.95266511,0.68974443,-1.43861525

>  <Name>
1uts_lig

>  <RI>
0

>  <Rbt.Current_Directory>
/home/itssahil/PROJECTS/Mol_Feturizer/New_Systems/rnas/1uts

>  <Rbt.Executable>
rbdock ($Id: //depot/dev/client3/rdock/2013.1/src/exe/rbdock.cxx#4 $)

>  <Rbt.Library>
libRbt.so (2013.1, Build901 2013/11/27)

>  <Rbt.Parameter_File>
/export/apps/rDock/src/rDock_2013.1_src/data/scripts/dock_solv.prm

>  <Rbt.Receptor>
prm/blind_docking_100.prm

>  <SCORE>
-18.1745

>  <SCORE.INTER>
-23.0246

>  <SCORE.INTER.CONST>
1

>  <SCORE.INTER.POLAR>
-2.38282

>  <SCORE.INTER.ROT>
10

>  <SCORE.INTER.SOLV>
7.22318

>  <SCORE.INTER.VDW>
-20.0814

>  <SCORE.INTER.norm>
-0.767486

>  <SCORE.INTRA>
1.25512

>  <SCORE.INTRA.DIHEDRAL>
3.4392

>  <SCORE.INTRA.DIHEDRAL.0>
18.0451

>  <SCORE.INTRA.POLAR>
0.196815

>  <SCORE.INTRA.POLAR.0>
-0.196815

>  <SCORE.INTRA.REPUL>
0

>  <SCORE.INTRA.REPUL.0>
0

>  <SCORE.INTRA.SOLV>
0.258016

>  <SCORE.INTRA.SOLV.lig_0>
-14.7906

>  <SCORE.INTRA.VDW>
-1.26266

>  <SCORE.INTRA.VDW.0>
-0.411701

>  <SCORE.INTRA.norm>
0.0418373

>  <SCORE.RESTR>
3.59498

>  <SCORE.RESTR.CAVITY>
3.59498

>  <SCORE.RESTR.norm>
0.119833

>  <SCORE.SYSTEM>
0

>  <SCORE.SYSTEM.CONST>
0

>  <SCORE.SYSTEM.DIHEDRAL>
0

>  <SCORE.SYSTEM.SOLV>
0

>  <SCORE.SYSTEM.norm>
0

>  <SCORE.heavy>
30

>  <SCORE.norm>
-0.605816

>  <RMSD>
17.981

$$$$
1uts_lig
 OpenBabel11021811413D
libRbt.so/2013.1/901 2013/11/27
 30 33  0  0  0  0  0  0  0  0999 V2000
   -6.1518   -8.0344    1.0108 N   0  0  0  0  0  0  0  0  0  0  0  0
   -8.0050   -9.6477    0.9939 C   0  0  0  0  0  0  0  0  0  0  0  0
   -7.0851   -8.7468    5.9955 C   0  0  0  0  0  0  0  0  0  0  0  0
   -8.7488   -8.9583    2.1414 C   0  0  0  0  0  0  0  0  0  0  0  0
   -7.8060   -8.5541    3.1451 O   0  0  0  0  0  0  0  0  0  0  0  0
   -7.2378   -8.6033    0.1810 C   0  0  0  0  0  0  0  0  0  0  0  0
   -6.9843   -8.6601    7.4700 N   0  0  0  0  0  0  0  0  0  0  0  0
   -8.2452   -9.1495    8.0879 C   0  0  0  0  0  0  0  0  0  0  0  0
   -8.2691   -8.7839    9.5749 C   0  0  0  0  0  0  0  0  0  0  0  0
   -9.6511   -8.4352    9.9743 N   0  0  0  0  0  0  0  0  0  0  0  0
  -10.0709   -7.1937    9.2628 C   0  0  0  0  0  0  0  0  0  0  0  0
   -9.7026   -8.2317   11.4498 C   0  0  0  0  0  0  0  0  0  0  0  0
  -11.5046   -6.8263    9.6781 C   0  0  0  0  0  0  0  0  0  0  0  0
  -11.1371   -7.8601   11.8664 C   0  0  0  0  0  0  0  0  0  0  0  0
  -11.5565   -6.6215   11.1535 N   0  0  0  0  0  0  0  0  0  0  0  0
   -9.9874   -5.8061    4.5314 C   0  0  0  0  0  0  0  0  0  0  0  0
  -12.0122   -2.2585    9.5303 N   0  0  0  0  0  0  0  0  0  0  0  0
   -9.6819   -5.8781    5.9115 C   0  0  0  0  0  0  0  0  0  0  0  0
   -8.7409   -6.8337    6.3793 C   0  0  0  0  0  0  0  0  0  0  0  0
   -8.1023   -7.7162    5.4653 C   0  0  0  0  0  0  0  0  0  0  0  0
   -8.4239   -7.6527    4.0762 C   0  0  0  0  0  0  0  0  0  0  0  0
   -9.3644   -6.6920    3.6132 C   0  0  0  0  0  0  0  0  0  0  0  0
  -10.8105   -1.6761    9.9934 C   0  0  0  0  0  0  0  0  0  0  0  0
   -9.6886   -2.2727    9.3745 C   0  0  0  0  0  0  0  0  0  0  0  0
   -9.5426   -4.1271    7.6126 C   0  0  0  0  0  0  0  0  0  0  0  0
  -10.3166   -5.0058    6.8069 C   0  0  0  0  0  0  0  0  0  0  0  0
  -11.7352   -4.9934    6.9055 C   0  0  0  0  0  0  0  0  0  0  0  0
  -12.3777   -4.1021    7.8068 C   0  0  0  0  0  0  0  0  0  0  0  0
  -11.5969   -3.2096    8.6060 C   0  0  0  0  0  0  0  0  0  0  0  0
  -10.1933   -3.2208    8.5102 C   0  0  0  0  0  0  0  0  0  0  0  0
  1  6  1  0  0  0  0
  2  4  1  0  0  0  0
  3  7  1  0  0  0  0
  4  5  1  0  0  0  0
  6  2  1  0  0  0  0
  7  8  1  0  0  0  0
  8  9  1  0  0  0  0
  9 10  1  0  0  0  0
 10 11  1  0  0  0  0
 10 12  1  0  0  0  0
 11 13  1  0  0  0  0
 13 15  1  0  0  0  0
 14 12  1  0  0  0  0
 15 14  1  0  0  0  0
 16 18  2  0  0  0  0
 16 22  1  0  0  0  0
 17 23  1  0  0  0  0
 17 29  1  0  0  0  0
 18 19  1  0  0  0  0
 18 26  1  0  0  0  0
 19 20  2  0  0  0  0
 20  3  1  0  0  0  0
 20 21  1  0  0  0  0
 21  5  1  0  0  0  0
 21 22  2  0  0  0  0
 23 24  2  0  0  0  0
 24 30  1  0  0  0  0
 25 26  2  0  0  0  0
 25 30  1  0  0  0  0
 26 27  1  0  0  0  0
 27 28  2  0  0  0  0
 28 29  1  0  0  0  0
 29 30  2  0  0  0  0
M  END
>  <CHROM.1>
-175.18662550,-72.92219894,69.17525010,167.12101218,66.96407130,-167.79197710
143.54384362,-65.43414212,-121.36498083,2.18108510,142.34718338,-9.44110908
-6.61799294,6.89143154,0.58309905,1.11125415,-1.07791798

>  <Name>
1uts_lig

>  <RI>
0

>  <Rbt.Current_Directory>
/home/itssahil/PROJECTS/Mol_Feturizer/New_Systems/rnas/1uts

>  <Rbt.Executable>
rbdock ($Id: //depot/dev/client3/rdock/2013.1/src/exe/rbdock.cxx#4 $)

>  <Rbt.Library>
libRbt.so (2013.1, Build901 2013/11/27)

>  <Rbt.Parameter_File>
/export/apps/rDock/src/rDock_2013.1_src/data/scripts/dock_solv.prm

>  <Rbt.Receptor>
prm/blind_docking_20.prm

>  <SCORE>
-29.7074

>  <SCORE.INTER>
-28.7529

>  <SCORE.INTER.CONST>
1

>  <SCORE.INTER.POLAR>
-2.49369

>  <SCORE.INTER.ROT>
10

>  <SCORE.INTER.SOLV>
8.40822

>  <SCORE.INTER.VDW>
-23.9257

>  <SCORE.INTER.norm>
-0.958429

>  <SCORE.INTRA>
-1.91033

>  <SCORE.INTRA.DIHEDRAL>
-6.09187

>  <SCORE.INTRA.DIHEDRAL.0>
18.0451

>  <SCORE.INTRA.POLAR>
-0.307725

>  <SCORE.INTRA.POLAR.0>
-0.196815

>  <SCORE.INTRA.REPUL>
0

>  <SCORE.INTRA.REPUL.0>
0

>  <SCORE.INTRA.SOLV>
0.176957

>  <SCORE.INTRA.SOLV.lig_0>
-14.7906

>  <SCORE.INTRA.VDW>
2.0934

>  <SCORE.INTRA.VDW.0>
-0.411701

>  <SCORE.INTRA.norm>
-0.0636775

>  <SCORE.RESTR>
0.955791

>  <SCORE.RESTR.CAVITY>
0.955791

>  <SCORE.RESTR.norm>
0.0318597

>  <SCORE.SYSTEM>
0

>  <SCORE.SYSTEM.CONST>
0

>  <SCORE.SYSTEM.DIHEDRAL>
0

>  <SCORE.SYSTEM.SOLV>
0

>  <SCORE.SYSTEM.norm>
0

>  <SCORE.heavy>
30

>  <SCORE.norm>
-0.990247

>  <RMSD>
17.986

$$$$
1uts_lig
 OpenBabel11021811413D
libRbt.so/2013.1/901 2013/11/27
 30 33  0  0  0  0  0  0  0  0999 V2000
  -11.0461   -9.0330   13.1430 N   0  0  0  0  0  0  0  0  0  0  0  0
   -9.8411   -7.7553   11.4247 C   0  0  0  0  0  0  0  0  0  0  0  0
   -9.0978   -5.0518    7.9140 C   0  0  0  0  0  0  0  0  0  0  0  0
  -11.1779   -7.4194   10.7574 C   0  0  0  0  0  0  0  0  0  0  0  0
  -10.9372   -6.6515    9.5690 O   0  0  0  0  0  0  0  0  0  0  0  0
  -10.0548   -7.9551   12.9262 C   0  0  0  0  0  0  0  0  0  0  0  0
  -10.4574   -4.5364    8.1936 N   0  0  0  0  0  0  0  0  0  0  0  0
  -10.4009   -3.0665    8.4108 C   0  0  0  0  0  0  0  0  0  0  0  0
   -9.6977   -2.7658    9.7377 C   0  0  0  0  0  0  0  0  0  0  0  0
  -10.5850   -3.1409   10.8615 N   0  0  0  0  0  0  0  0  0  0  0  0
  -10.3421   -4.5664   11.2259 C   0  0  0  0  0  0  0  0  0  0  0  0
  -12.0055   -2.9422   10.4571 C   0  0  0  0  0  0  0  0  0  0  0  0
  -11.2649   -4.9608   12.3905 C   0  0  0  0  0  0  0  0  0  0  0  0
  -12.9306   -3.3403   11.6213 C   0  0  0  0  0  0  0  0  0  0  0  0
  -12.6858   -4.7634   11.9862 N   0  0  0  0  0  0  0  0  0  0  0  0
   -9.0795   -9.4344    7.8265 C   0  0  0  0  0  0  0  0  0  0  0  0
   -4.8445  -11.5949    3.5298 N   0  0  0  0  0  0  0  0  0  0  0  0
   -8.1916   -8.7025    7.0023 C   0  0  0  0  0  0  0  0  0  0  0  0
   -8.2031   -7.2825    7.0353 C   0  0  0  0  0  0  0  0  0  0  0  0
   -9.1015   -6.5938    7.8958 C   0  0  0  0  0  0  0  0  0  0  0  0
  -10.0072   -7.3336    8.7140 C   0  0  0  0  0  0  0  0  0  0  0  0
   -9.9891   -8.7549    8.6791 C   0  0  0  0  0  0  0  0  0  0  0  0
   -5.7543  -12.6361    3.2368 C   0  0  0  0  0  0  0  0  0  0  0  0
   -6.9686  -12.4581    3.9379 C   0  0  0  0  0  0  0  0  0  0  0  0
   -7.7149  -10.6050    5.5419 C   0  0  0  0  0  0  0  0  0  0  0  0
   -7.3097   -9.3884    6.1554 C   0  0  0  0  0  0  0  0  0  0  0  0
   -6.0117   -8.8653    5.9032 C   0  0  0  0  0  0  0  0  0  0  0  0
   -5.1220   -9.5568    5.0372 C   0  0  0  0  0  0  0  0  0  0  0  0
   -5.5376  -10.7732    4.4106 C   0  0  0  0  0  0  0  0  0  0  0  0
   -6.8212  -11.2926    4.6594 C   0  0  0  0  0  0  0  0  0  0  0  0
  1  6  1  0  0  0  0
  2  4  1  0  0  0  0
  3  7  1  0  0  0  0
  4  5  1  0  0  0  0
  6  2  1  0  0  0  0
  7  8  1  0  0  0  0
  8  9  1  0  0  0  0
  9 10  1  0  0  0  0
 10 11  1  0  0  0  0
 10 12  1  0  0  0  0
 11 13  1  0  0  0  0
 13 15  1  0  0  0  0
 14 12  1  0  0  0  0
 15 14  1  0  0  0  0
 16 18  2  0  0  0  0
 16 22  1  0  0  0  0
 17 23  1  0  0  0  0
 17 29  1  0  0  0  0
 18 19  1  0  0  0  0
 18 26  1  0  0  0  0
 19 20  2  0  0  0  0
 20  3  1  0  0  0  0
 20 21  1  0  0  0  0
 21  5  1  0  0  0  0
 21 22  2  0  0  0  0
 23 24  2  0  0  0  0
 24 30  1  0  0  0  0
 25 26  2  0  0  0  0
 25 30  1  0  0  0  0
 26 27  1  0  0  0  0
 27 28  2  0  0  0  0
 28 29  1  0  0  0  0
 29 30  2  0  0  0  0
M  END
>  <CHROM.1>
-171.48293134,153.42583584,171.52533282,53.55337993,57.91337348,-69.96455011
-71.95600285,89.28460487,35.02402976,147.92158627,-147.56135334,-9.22145084
-7.32955160,8.49610163,2.77057066,1.02051678,-0.33833574

>  <Name>
1uts_lig

>  <RI>
0

>  <Rbt.Current_Directory>
/home/itssahil/PROJECTS/Mol_Feturizer/New_Systems/rnas/1uts

>  <Rbt.Executable>
rbdock ($Id: //depot/dev/client3/rdock/2013.1/src/exe/rbdock.cxx#4 $)

>  <Rbt.Library>
libRbt.so (2013.1, Build901 2013/11/27)

>  <Rbt.Parameter_File>
/export/apps/rDock/src/rDock_2013.1_src/data/scripts/dock_solv.prm

>  <Rbt.Receptor>
prm/blind_docking_100.prm

>  <SCORE>
-1.80621

>  <SCORE.INTER>
-17.4842

>  <SCORE.INTER.CONST>
1

>  <SCORE.INTER.POLAR>
-2.02787

>  <SCORE.INTER.ROT>
10

>  <SCORE.INTER.SOLV>
9.28921

>  <SCORE.INTER.VDW>
-18.2596

>  <SCORE.INTER.norm>
-0.582807

>  <SCORE.INTRA>
11.3266

>  <SCORE.INTRA.DIHEDRAL>
-9.09623

>  <SCORE.INTRA.DIHEDRAL.0>
18.0451

>  <SCORE.INTRA.POLAR>
-0.48624

>  <SCORE.INTRA.POLAR.0>
-0.196815

>  <SCORE.INTRA.REPUL>
0

>  <SCORE.INTRA.REPUL.0>
0

>  <SCORE.INTRA.SOLV>
0.867993

>  <SCORE.INTRA.SOLV.lig_0>
-14.7906

>  <SCORE.INTRA.VDW>
17.0939

>  <SCORE.INTRA.VDW.0>
-0.411701

>  <SCORE.INTRA.norm>
0.377553

>  <SCORE.RESTR>
4.35141

>  <SCORE.RESTR.CAVITY>
4.35141

>  <SCORE.RESTR.norm>
0.145047

>  <SCORE.SYSTEM>
0

>  <SCORE.SYSTEM.CONST>
0

>  <SCORE.SYSTEM.DIHEDRAL>
0

>  <SCORE.SYSTEM.SOLV>
0

>  <SCORE.SYSTEM.norm>
0

>  <SCORE.heavy>
30

>  <SCORE.norm>
-0.0602071

>  <RMSD>
18.012

$$$$
1uts_lig
 OpenBabel11021811413D
libRbt.so/2013.1/901 2013/11/27
 30 33  0  0  0  0  0  0  0  0999 V2000
  -10.7455   -9.0513   14.1483 N   0  0  0  0  0  0  0  0  0  0  0  0
   -9.5240   -7.3771   12.8283 C   0  0  0  0  0  0  0  0  0  0  0  0
  -11.1349   -7.1198    8.0670 C   0  0  0  0  0  0  0  0  0  0  0  0
   -8.6820   -7.5945   11.5678 C   0  0  0  0  0  0  0  0  0  0  0  0
   -9.3787   -7.0612   10.4320 O   0  0  0  0  0  0  0  0  0  0  0  0
  -10.6935   -8.3632   12.8386 C   0  0  0  0  0  0  0  0  0  0  0  0
  -11.1828   -5.8927    8.8940 N   0  0  0  0  0  0  0  0  0  0  0  0
  -10.7593   -4.7230    8.0795 C   0  0  0  0  0  0  0  0  0  0  0  0
  -11.8009   -3.6063    8.1963 C   0  0  0  0  0  0  0  0  0  0  0  0
  -11.4174   -2.6875    9.2915 N   0  0  0  0  0  0  0  0  0  0  0  0
  -10.2185   -1.9026    8.8786 C   0  0  0  0  0  0  0  0  0  0  0  0
  -11.1234   -3.4784   10.5199 C   0  0  0  0  0  0  0  0  0  0  0  0
   -9.8148   -0.9497   10.0153 C   0  0  0  0  0  0  0  0  0  0  0  0
  -10.7154   -2.5255   11.6579 C   0  0  0  0  0  0  0  0  0  0  0  0
   -9.5195   -1.7402   11.2438 N   0  0  0  0  0  0  0  0  0  0  0  0
   -7.0859   -8.7974    7.9906 C   0  0  0  0  0  0  0  0  0  0  0  0
   -5.8470  -11.4832    2.3078 N   0  0  0  0  0  0  0  0  0  0  0  0
   -7.9047   -8.8618    6.8379 C   0  0  0  0  0  0  0  0  0  0  0  0
   -9.2159   -8.3166    6.8696 C   0  0  0  0  0  0  0  0  0  0  0  0
   -9.7077   -7.7036    8.0546 C   0  0  0  0  0  0  0  0  0  0  0  0
   -8.8864   -7.6544    9.2208 C   0  0  0  0  0  0  0  0  0  0  0  0
   -7.5735   -8.1989    9.1823 C   0  0  0  0  0  0  0  0  0  0  0  0
   -5.0617  -12.4345    2.9978 C   0  0  0  0  0  0  0  0  0  0  0  0
   -5.1575  -12.2501    4.3959 C   0  0  0  0  0  0  0  0  0  0  0  0
   -6.5016  -10.5553    5.7687 C   0  0  0  0  0  0  0  0  0  0  0  0
   -7.4134   -9.4690    5.6736 C   0  0  0  0  0  0  0  0  0  0  0  0
   -7.8315   -9.0042    4.3963 C   0  0  0  0  0  0  0  0  0  0  0  0
   -7.3400   -9.6266    3.2171 C   0  0  0  0  0  0  0  0  0  0  0  0
   -6.4336  -10.7282    3.3163 C   0  0  0  0  0  0  0  0  0  0  0  0
   -6.0184  -11.1890    4.5791 C   0  0  0  0  0  0  0  0  0  0  0  0
  1  6  1  0  0  0  0
  2  4  1  0  0  0  0
  3  7  1  0  0  0  0
  4  5  1  0  0  0  0
  6  2  1  0  0  0  0
  7  8  1  0  0  0  0
  8  9  1  0  0  0  0
  9 10  1  0  0  0  0
 10 11  1  0  0  0  0
 10 12  1  0  0  0  0
 11 13  1  0  0  0  0
 13 15  1  0  0  0  0
 14 12  1  0  0  0  0
 15 14  1  0  0  0  0
 16 18  2  0  0  0  0
 16 22  1  0  0  0  0
 17 23  1  0  0  0  0
 17 29  1  0  0  0  0
 18 19  1  0  0  0  0
 18 26  1  0  0  0  0
 19 20  2  0  0  0  0
 20  3  1  0  0  0  0
 20 21  1  0  0  0  0
 21  5  1  0  0  0  0
 21 22  2  0  0  0  0
 23 24  2  0  0  0  0
 24 30  1  0  0  0  0
 25 26  2  0  0  0  0
 25 30  1  0  0  0  0
 26 27  1  0  0  0  0
 27 28  2  0  0  0  0
 28 29  1  0  0  0  0
 29 30  2  0  0  0  0
M  END
>  <CHROM.1>
-31.06415634,74.52807634,84.31367664,-159.08653082,129.92182998,128.77950846
92.86192360,70.71350905,32.16525705,-144.27162683,155.73553773,-8.92258052
-7.21319644,8.21807729,-3.06276063,1.15411719,-0.89166336

>  <Name>
1uts_lig

>  <RI>
0

>  <Rbt.Current_Directory>
/home/itssahil/PROJECTS/Mol_Feturizer/New_Systems/rnas/1uts

>  <Rbt.Executable>
rbdock ($Id: //depot/dev/client3/rdock/2013.1/src/exe/rbdock.cxx#4 $)

>  <Rbt.Library>
libRbt.so (2013.1, Build901 2013/11/27)

>  <Rbt.Parameter_File>
/export/apps/rDock/src/rDock_2013.1_src/data/scripts/dock_solv.prm

>  <Rbt.Receptor>
prm/blind_docking_60.prm

>  <SCORE>
-12.8353

>  <SCORE.INTER>
-23.7401

>  <SCORE.INTER.CONST>
1

>  <SCORE.INTER.POLAR>
-1.69495

>  <SCORE.INTER.ROT>
10

>  <SCORE.INTER.SOLV>
8.54119

>  <SCORE.INTER.VDW>
-23.2907

>  <SCORE.INTER.norm>
-0.791337

>  <SCORE.INTRA>
6.39214

>  <SCORE.INTRA.DIHEDRAL>
2.51283

>  <SCORE.INTRA.DIHEDRAL.0>
18.0451

>  <SCORE.INTRA.POLAR>
-0.672347

>  <SCORE.INTRA.POLAR.0>
-0.196815

>  <SCORE.INTRA.REPUL>
0

>  <SCORE.INTRA.REPUL.0>
0

>  <SCORE.INTRA.SOLV>
0.00755925

>  <SCORE.INTRA.SOLV.lig_0>
-14.7906

>  <SCORE.INTRA.VDW>
7.41793

>  <SCORE.INTRA.VDW.0>
-0.411701

>  <SCORE.INTRA.norm>
0.213071

>  <SCORE.RESTR>
4.51267

>  <SCORE.RESTR.CAVITY>
4.51267

>  <SCORE.RESTR.norm>
0.150422

>  <SCORE.SYSTEM>
0

>  <SCORE.SYSTEM.CONST>
0

>  <SCORE.SYSTEM.DIHEDRAL>
0

>  <SCORE.SYSTEM.SOLV>
0

>  <SCORE.SYSTEM.norm>
0

>  <SCORE.heavy>
30

>  <SCORE.norm>
-0.427844

>  <RMSD>
18.020

$$$$
1uts_lig
 OpenBabel11021811413D
libRbt.so/2013.1/901 2013/11/27
 30 33  0  0  0  0  0  0  0  0999 V2000
  -10.7354   -8.9199   13.4473 N   0  0  0  0  0  0  0  0  0  0  0  0
  -10.0513   -7.5075   11.5567 C   0  0  0  0  0  0  0  0  0  0  0  0
  -11.0350   -6.2485    6.6383 C   0  0  0  0  0  0  0  0  0  0  0  0
  -10.5430   -6.4287   10.5873 C   0  0  0  0  0  0  0  0  0  0  0  0
  -11.1898   -7.0529    9.4685 O   0  0  0  0  0  0  0  0  0  0  0  0
  -11.2360   -8.0587   12.3522 C   0  0  0  0  0  0  0  0  0  0  0  0
  -11.5756   -5.3735    7.7033 N   0  0  0  0  0  0  0  0  0  0  0  0
  -10.5296   -4.4110    8.1396 C   0  0  0  0  0  0  0  0  0  0  0  0
  -11.1748   -3.2668    8.9271 C   0  0  0  0  0  0  0  0  0  0  0  0
  -10.1486   -2.6039    9.7628 N   0  0  0  0  0  0  0  0  0  0  0  0
   -9.7904   -3.4961   10.9027 C   0  0  0  0  0  0  0  0  0  0  0  0
  -10.6831   -1.3068   10.2656 C   0  0  0  0  0  0  0  0  0  0  0  0
   -8.7273   -2.8092   11.7752 C   0  0  0  0  0  0  0  0  0  0  0  0
   -9.6208   -0.6198   11.1425 C   0  0  0  0  0  0  0  0  0  0  0  0
   -9.2619   -1.5124   12.2794 N   0  0  0  0  0  0  0  0  0  0  0  0
   -8.4061   -9.3259    8.3215 C   0  0  0  0  0  0  0  0  0  0  0  0
   -4.7383  -11.7418    3.6003 N   0  0  0  0  0  0  0  0  0  0  0  0
   -8.3120   -8.9810    6.9520 C   0  0  0  0  0  0  0  0  0  0  0  0
   -9.1672   -7.9832    6.4129 C   0  0  0  0  0  0  0  0  0  0  0  0
  -10.1155   -7.3275    7.2451 C   0  0  0  0  0  0  0  0  0  0  0  0
  -10.2199   -7.6885    8.6221 C   0  0  0  0  0  0  0  0  0  0  0  0
   -9.3591   -8.6857    9.1569 C   0  0  0  0  0  0  0  0  0  0  0  0
   -5.6023  -12.8087    3.2643 C   0  0  0  0  0  0  0  0  0  0  0  0
   -6.8489  -12.6738    3.9166 C   0  0  0  0  0  0  0  0  0  0  0  0
   -7.7172  -10.8568    5.5005 C   0  0  0  0  0  0  0  0  0  0  0  0
   -7.3755   -9.6328    6.1373 C   0  0  0  0  0  0  0  0  0  0  0  0
   -6.0854   -9.0676    5.9411 C   0  0  0  0  0  0  0  0  0  0  0  0
   -5.1403   -9.7246    5.1077 C   0  0  0  0  0  0  0  0  0  0  0  0
   -5.4918  -10.9487    4.4573 C   0  0  0  0  0  0  0  0  0  0  0  0
   -6.7675  -11.5097    4.6507 C   0  0  0  0  0  0  0  0  0  0  0  0
  1  6  1  0  0  0  0
  2  4  1  0  0  0  0
  3  7  1  0  0  0  0
  4  5  1  0  0  0  0
  6  2  1  0  0  0  0
  7  8  1  0  0  0  0
  8  9  1  0  0  0  0
  9 10  1  0  0  0  0
 10 11  1  0  0  0  0
 10 12  1  0  0  0  0
 11 13  1  0  0  0  0
 13 15  1  0  0  0  0
 14 12  1  0  0  0  0
 15 14  1  0  0  0  0
 16 18  2  0  0  0  0
 16 22  1  0  0  0  0
 17 23  1  0  0  0  0
 17 29  1  0  0  0  0
 18 19  1  0  0  0  0
 18 26  1  0  0  0  0
 19 20  2  0  0  0  0
 20  3  1  0  0  0  0
 20 21  1  0  0  0  0
 21  5  1  0  0  0  0
 21 22  2  0  0  0  0
 23 24  2  0  0  0  0
 24 30  1  0  0  0  0
 25 26  2  0  0  0  0
 25 30  1  0  0  0  0
 26 27  1  0  0  0  0
 27 28  2  0  0  0  0
 28 29  1  0  0  0  0
 29 30  2  0  0  0  0
M  END
>  <CHROM.1>
150.11941580,-76.24884230,76.94955895,-72.16878435,-170.05376932,163.89131034
159.41286291,-72.67907680,87.02531531,-159.70025925,-122.38451063,-9.00868838
-7.14230348,8.29648183,2.43257338,1.06263980,-0.12130729

>  <Name>
1uts_lig

>  <RI>
0

>  <Rbt.Current_Directory>
/home/itssahil/PROJECTS/Mol_Feturizer/New_Systems/rnas/1uts

>  <Rbt.Executable>
rbdock ($Id: //depot/dev/client3/rdock/2013.1/src/exe/rbdock.cxx#4 $)

>  <Rbt.Library>
libRbt.so (2013.1, Build901 2013/11/27)

>  <Rbt.Parameter_File>
/export/apps/rDock/src/rDock_2013.1_src/data/scripts/dock_solv.prm

>  <Rbt.Receptor>
prm/blind_docking_60.prm

>  <SCORE>
-15.1294

>  <SCORE.INTER>
-20.8506

>  <SCORE.INTER.CONST>
1

>  <SCORE.INTER.POLAR>
-1.81037

>  <SCORE.INTER.ROT>
10

>  <SCORE.INTER.SOLV>
9.08431

>  <SCORE.INTER.VDW>
-21.1606

>  <SCORE.INTER.norm>
-0.69502

>  <SCORE.INTRA>
2.01254

>  <SCORE.INTRA.DIHEDRAL>
-2.17187

>  <SCORE.INTRA.DIHEDRAL.0>
18.0451

>  <SCORE.INTRA.POLAR>
-0.460803

>  <SCORE.INTRA.POLAR.0>
-0.196815

>  <SCORE.INTRA.REPUL>
0

>  <SCORE.INTRA.REPUL.0>
0

>  <SCORE.INTRA.SOLV>
-0.00063783

>  <SCORE.INTRA.SOLV.lig_0>
-14.7906

>  <SCORE.INTRA.VDW>
4.66552

>  <SCORE.INTRA.VDW.0>
-0.411701

>  <SCORE.INTRA.norm>
0.0670847

>  <SCORE.RESTR>
3.7087

>  <SCORE.RESTR.CAVITY>
3.7087

>  <SCORE.RESTR.norm>
0.123623

>  <SCORE.SYSTEM>
0

>  <SCORE.SYSTEM.CONST>
0

>  <SCORE.SYSTEM.DIHEDRAL>
0

>  <SCORE.SYSTEM.SOLV>
0

>  <SCORE.SYSTEM.norm>
0

>  <SCORE.heavy>
30

>  <SCORE.norm>
-0.504312

>  <RMSD>
18.029

$$$$
1uts_lig
 OpenBabel11021811413D
libRbt.so/2013.1/901 2013/11/27
 30 33  0  0  0  0  0  0  0  0999 V2000
   -5.6648  -12.7208    3.4808 N   0  0  0  0  0  0  0  0  0  0  0  0
   -7.4492  -11.1496    4.1009 C   0  0  0  0  0  0  0  0  0  0  0  0
   -6.2573   -8.3340    5.6697 C   0  0  0  0  0  0  0  0  0  0  0  0
   -7.5367  -10.4019    2.7672 C   0  0  0  0  0  0  0  0  0  0  0  0
   -6.9416   -9.1037    2.9092 O   0  0  0  0  0  0  0  0  0  0  0  0
   -6.0018  -11.5746    4.3550 C   0  0  0  0  0  0  0  0  0  0  0  0
   -6.6152   -9.1852    6.8271 N   0  0  0  0  0  0  0  0  0  0  0  0
   -7.3743   -8.3832    7.8229 C   0  0  0  0  0  0  0  0  0  0  0  0
   -7.9923   -9.3115    8.8726 C   0  0  0  0  0  0  0  0  0  0  0  0
   -8.9409   -8.5445    9.7109 N   0  0  0  0  0  0  0  0  0  0  0  0
   -8.2026   -7.4661   10.4291 C   0  0  0  0  0  0  0  0  0  0  0  0
   -9.5951   -9.4640   10.6843 C   0  0  0  0  0  0  0  0  0  0  0  0
   -9.1841   -6.6697   11.3040 C   0  0  0  0  0  0  0  0  0  0  0  0
  -10.5755   -8.6669   11.5635 C   0  0  0  0  0  0  0  0  0  0  0  0
   -9.8378   -7.5886   12.2786 N   0  0  0  0  0  0  0  0  0  0  0  0
   -9.8901   -6.8840    3.6911 C   0  0  0  0  0  0  0  0  0  0  0  0
  -13.0023   -3.1002    7.9413 N   0  0  0  0  0  0  0  0  0  0  0  0
   -9.6067   -6.5049    5.0250 C   0  0  0  0  0  0  0  0  0  0  0  0
   -8.4280   -6.9787    5.6603 C   0  0  0  0  0  0  0  0  0  0  0  0
   -7.5301   -7.8301    4.9598 C   0  0  0  0  0  0  0  0  0  0  0  0
   -7.8260   -8.2243    3.6203 C   0  0  0  0  0  0  0  0  0  0  0  0
   -9.0059   -7.7444    2.9883 C   0  0  0  0  0  0  0  0  0  0  0  0
  -12.2048   -3.0126    9.1049 C   0  0  0  0  0  0  0  0  0  0  0  0
  -11.0351   -3.7954    8.9758 C   0  0  0  0  0  0  0  0  0  0  0  0
  -10.1959   -5.2362    7.0306 C   0  0  0  0  0  0  0  0  0  0  0  0
  -10.4974   -5.6664    5.7098 C   0  0  0  0  0  0  0  0  0  0  0  0
  -11.6999   -5.2392    5.0823 C   0  0  0  0  0  0  0  0  0  0  0  0
  -12.5975   -4.3818    5.7742 C   0  0  0  0  0  0  0  0  0  0  0  0
  -12.2847   -3.9395    7.0977 C   0  0  0  0  0  0  0  0  0  0  0  0
  -11.0958   -4.3616    7.7203 C   0  0  0  0  0  0  0  0  0  0  0  0
  1  6  1  0  0  0  0
  2  4  1  0  0  0  0
  3  7  1  0  0  0  0
  4  5  1  0  0  0  0
  6  2  1  0  0  0  0
  7  8  1  0  0  0  0
  8  9  1  0  0  0  0
  9 10  1  0  0  0  0
 10 11  1  0  0  0  0
 10 12  1  0  0  0  0
 11 13  1  0  0  0  0
 13 15  1  0  0  0  0
 14 12  1  0  0  0  0
 15 14  1  0  0  0  0
 16 18  2  0  0  0  0
 16 22  1  0  0  0  0
 17 23  1  0  0  0  0
 17 29  1  0  0  0  0
 18 19  1  0  0  0  0
 18 26  1  0  0  0  0
 19 20  2  0  0  0  0
 20  3  1  0  0  0  0
 20 21  1  0  0  0  0
 21  5  1  0  0  0  0
 21 22  2  0  0  0  0
 23 24  2  0  0  0  0
 24 30  1  0  0  0  0
 25 26  2  0  0  0  0
 25 30  1  0  0  0  0
 26 27  1  0  0  0  0
 27 28  2  0  0  0  0
 28 29  1  0  0  0  0
 29 30  2  0  0  0  0
M  END
>  <CHROM.1>
61.10022451,-72.43107922,-62.57369757,-76.10415939,-74.70831101,168.36249591
-169.79402648,-61.99745303,-177.47256921,63.53546494,108.20655815,-9.08730064
-7.51067036,6.81220161,-0.55122919,-0.91643820,1.67848672

>  <Name>
1uts_lig

>  <RI>
0

>  <Rbt.Current_Directory>
/home/itssahil/PROJECTS/Mol_Feturizer/New_Systems/rnas/1uts

>  <Rbt.Executable>
rbdock ($Id: //depot/dev/client3/rdock/2013.1/src/exe/rbdock.cxx#4 $)

>  <Rbt.Library>
libRbt.so (2013.1, Build901 2013/11/27)

>  <Rbt.Parameter_File>
/export/apps/rDock/src/rDock_2013.1_src/data/scripts/dock_solv.prm

>  <Rbt.Receptor>
prm/blind_docking_20.prm

>  <SCORE>
-20.1689

>  <SCORE.INTER>
-21.7475

>  <SCORE.INTER.CONST>
1

>  <SCORE.INTER.POLAR>
-1.89716

>  <SCORE.INTER.ROT>
10

>  <SCORE.INTER.SOLV>
6.33603

>  <SCORE.INTER.VDW>
-20.5531

>  <SCORE.INTER.norm>
-0.724917

>  <SCORE.INTRA>
-0.514578

>  <SCORE.INTRA.DIHEDRAL>
-9.69426

>  <SCORE.INTRA.DIHEDRAL.0>
18.0451

>  <SCORE.INTRA.POLAR>
0.196815

>  <SCORE.INTRA.POLAR.0>
-0.196815

>  <SCORE.INTRA.REPUL>
0

>  <SCORE.INTRA.REPUL.0>
0

>  <SCORE.INTRA.SOLV>
-0.20454

>  <SCORE.INTRA.SOLV.lig_0>
-14.7906

>  <SCORE.INTRA.VDW>
3.76565

>  <SCORE.INTRA.VDW.0>
-0.411701

>  <SCORE.INTRA.norm>
-0.0171526

>  <SCORE.RESTR>
2.09314

>  <SCORE.RESTR.CAVITY>
2.09314

>  <SCORE.RESTR.norm>
0.0697714

>  <SCORE.SYSTEM>
0

>  <SCORE.SYSTEM.CONST>
0

>  <SCORE.SYSTEM.DIHEDRAL>
0

>  <SCORE.SYSTEM.SOLV>
0

>  <SCORE.SYSTEM.norm>
0

>  <SCORE.heavy>
30

>  <SCORE.norm>
-0.672298

>  <RMSD>
18.053

$$$$
1uts_lig
 OpenBabel11021811413D
libRbt.so/2013.1/901 2013/11/27
 30 33  0  0  0  0  0  0  0  0999 V2000
  -11.0459   -6.2454   14.3280 N   0  0  0  0  0  0  0  0  0  0  0  0
  -11.1005   -7.6363   12.3033 C   0  0  0  0  0  0  0  0  0  0  0  0
  -10.3505   -5.9081    8.6182 C   0  0  0  0  0  0  0  0  0  0  0  0
   -9.6010   -7.8309   12.0604 C   0  0  0  0  0  0  0  0  0  0  0  0
   -9.1352   -6.8361   11.1367 O   0  0  0  0  0  0  0  0  0  0  0  0
  -11.3486   -6.2409   12.8789 C   0  0  0  0  0  0  0  0  0  0  0  0
  -11.3443   -6.1797    7.5549 N   0  0  0  0  0  0  0  0  0  0  0  0
  -12.5661   -5.3659    7.7915 C   0  0  0  0  0  0  0  0  0  0  0  0
  -12.2706   -3.8915    7.5008 C   0  0  0  0  0  0  0  0  0  0  0  0
  -11.7511   -3.2425    8.7254 N   0  0  0  0  0  0  0  0  0  0  0  0
  -12.5748   -2.0376    9.0314 C   0  0  0  0  0  0  0  0  0  0  0  0
  -10.3265   -2.8588    8.5150 C   0  0  0  0  0  0  0  0  0  0  0  0
  -12.0357   -1.3586   10.3008 C   0  0  0  0  0  0  0  0  0  0  0  0
   -9.7866   -2.1754    9.7843 C   0  0  0  0  0  0  0  0  0  0  0  0
  -10.6113   -0.9735   10.0906 N   0  0  0  0  0  0  0  0  0  0  0  0
   -7.3543   -9.1065    8.7065 C   0  0  0  0  0  0  0  0  0  0  0  0
   -6.1758  -11.3619    2.8421 N   0  0  0  0  0  0  0  0  0  0  0  0
   -7.9273   -8.7019    7.4772 C   0  0  0  0  0  0  0  0  0  0  0  0
   -8.8980   -7.6652    7.4557 C   0  0  0  0  0  0  0  0  0  0  0  0
   -9.2938   -7.0302    8.6648 C   0  0  0  0  0  0  0  0  0  0  0  0
   -8.7268   -7.4508    9.9053 C   0  0  0  0  0  0  0  0  0  0  0  0
   -7.7532   -8.4870    9.9203 C   0  0  0  0  0  0  0  0  0  0  0  0
   -4.9968  -11.9141    3.3922 C   0  0  0  0  0  0  0  0  0  0  0  0
   -4.8400  -11.5272    4.7425 C   0  0  0  0  0  0  0  0  0  0  0  0
   -6.3237  -10.0793    6.2480 C   0  0  0  0  0  0  0  0  0  0  0  0
   -7.5332   -9.3337    6.2893 C   0  0  0  0  0  0  0  0  0  0  0  0
   -8.3455   -9.2357    5.1262 C   0  0  0  0  0  0  0  0  0  0  0  0
   -7.9495   -9.8842    3.9253 C   0  0  0  0  0  0  0  0  0  0  0  0
   -6.7391  -10.6451    3.8909 C   0  0  0  0  0  0  0  0  0  0  0  0
   -5.9339  -10.7427    5.0404 C   0  0  0  0  0  0  0  0  0  0  0  0
  1  6  1  0  0  0  0
  2  4  1  0  0  0  0
  3  7  1  0  0  0  0
  4  5  1  0  0  0  0
  6  2  1  0  0  0  0
  7  8  1  0  0  0  0
  8  9  1  0  0  0  0
  9 10  1  0  0  0  0
 10 11  1  0  0  0  0
 10 12  1  0  0  0  0
 11 13  1  0  0  0  0
 13 15  1  0  0  0  0
 14 12  1  0  0  0  0
 15 14  1  0  0  0  0
 16 18  2  0  0  0  0
 16 22  1  0  0  0  0
 17 23  1  0  0  0  0
 17 29  1  0  0  0  0
 18 19  1  0  0  0  0
 18 26  1  0  0  0  0
 19 20  2  0  0  0  0
 20  3  1  0  0  0  0
 20 21  1  0  0  0  0
 21  5  1  0  0  0  0
 21 22  2  0  0  0  0
 23 24  2  0  0  0  0
 24 30  1  0  0  0  0
 25 26  2  0  0  0  0
 25 30  1  0  0  0  0
 26 27  1  0  0  0  0
 27 28  2  0  0  0  0
 28 29  1  0  0  0  0
 29 30  2  0  0  0  0
M  END
>  <CHROM.1>
-58.68225139,-59.71120618,161.95227261,-113.56958006,-79.85983621,71.32695729
-88.10982073,-125.93523963,-18.10231004,34.13381048,124.56004093,-9.26825301
-6.91736814,8.27185411,-2.79531106,1.03902888,-1.27590315

>  <Name>
1uts_lig

>  <RI>
0

>  <Rbt.Current_Directory>
/home/itssahil/PROJECTS/Mol_Feturizer/New_Systems/rnas/1uts

>  <Rbt.Executable>
rbdock ($Id: //depot/dev/client3/rdock/2013.1/src/exe/rbdock.cxx#4 $)

>  <Rbt.Library>
libRbt.so (2013.1, Build901 2013/11/27)

>  <Rbt.Parameter_File>
/export/apps/rDock/src/rDock_2013.1_src/data/scripts/dock_solv.prm

>  <Rbt.Receptor>
prm/blind_docking_100.prm

>  <SCORE>
-11.4518

>  <SCORE.INTER>
-20.4746

>  <SCORE.INTER.CONST>
1

>  <SCORE.INTER.POLAR>
-1.50823

>  <SCORE.INTER.ROT>
10

>  <SCORE.INTER.SOLV>
8.69438

>  <SCORE.INTER.VDW>
-21.7871

>  <SCORE.INTER.norm>
-0.682488

>  <SCORE.INTRA>
4.37448

>  <SCORE.INTRA.DIHEDRAL>
1.7913

>  <SCORE.INTRA.DIHEDRAL.0>
18.0451

>  <SCORE.INTRA.POLAR>
0.196815

>  <SCORE.INTRA.POLAR.0>
-0.196815

>  <SCORE.INTRA.REPUL>
0

>  <SCORE.INTRA.REPUL.0>
0

>  <SCORE.INTRA.SOLV>
-0.193646

>  <SCORE.INTRA.SOLV.lig_0>
-14.7906

>  <SCORE.INTRA.VDW>
2.90648

>  <SCORE.INTRA.VDW.0>
-0.411701

>  <SCORE.INTRA.norm>
0.145816

>  <SCORE.RESTR>
4.64838

>  <SCORE.RESTR.CAVITY>
4.64838

>  <SCORE.RESTR.norm>
0.154946

>  <SCORE.SYSTEM>
0

>  <SCORE.SYSTEM.CONST>
0

>  <SCORE.SYSTEM.DIHEDRAL>
0

>  <SCORE.SYSTEM.SOLV>
0

>  <SCORE.SYSTEM.norm>
0

>  <SCORE.heavy>
30

>  <SCORE.norm>
-0.381726

>  <RMSD>
18.061

$$$$
1uts_lig
 OpenBabel11021811413D
libRbt.so/2013.1/901 2013/11/27
 30 33  0  0  0  0  0  0  0  0999 V2000
   -4.2512  -12.0235    4.3462 N   0  0  0  0  0  0  0  0  0  0  0  0
   -6.2808  -10.8242    5.0388 C   0  0  0  0  0  0  0  0  0  0  0  0
   -8.9411   -6.9461    4.7510 C   0  0  0  0  0  0  0  0  0  0  0  0
   -5.4820   -9.5198    4.9648 C   0  0  0  0  0  0  0  0  0  0  0  0
   -6.3876   -8.4132    4.8410 O   0  0  0  0  0  0  0  0  0  0  0  0
   -5.6920  -11.8409    4.0592 C   0  0  0  0  0  0  0  0  0  0  0  0
   -9.7149   -5.7150    5.0297 N   0  0  0  0  0  0  0  0  0  0  0  0
  -10.9809   -6.0661    5.7262 C   0  0  0  0  0  0  0  0  0  0  0  0
  -11.6907   -4.7890    6.1853 C   0  0  0  0  0  0  0  0  0  0  0  0
  -11.2892   -4.4747    7.5749 N   0  0  0  0  0  0  0  0  0  0  0  0
  -12.2101   -3.4424    8.1319 C   0  0  0  0  0  0  0  0  0  0  0  0
   -9.8845   -3.9771    7.5829 C   0  0  0  0  0  0  0  0  0  0  0  0
  -11.7938   -3.1105    9.5740 C   0  0  0  0  0  0  0  0  0  0  0  0
   -9.4677   -3.6409    9.0261 C   0  0  0  0  0  0  0  0  0  0  0  0
  -10.3894   -2.6117    9.5825 N   0  0  0  0  0  0  0  0  0  0  0  0
   -7.3292   -8.5678    8.4908 C   0  0  0  0  0  0  0  0  0  0  0  0
  -11.2537   -7.3284   13.3970 N   0  0  0  0  0  0  0  0  0  0  0  0
   -8.5510   -7.8532    8.4932 C   0  0  0  0  0  0  0  0  0  0  0  0
   -9.0674   -7.3300    7.2779 C   0  0  0  0  0  0  0  0  0  0  0  0
   -8.3627   -7.5243    6.0583 C   0  0  0  0  0  0  0  0  0  0  0  0
   -7.1227   -8.2311    6.0607 C   0  0  0  0  0  0  0  0  0  0  0  0
   -6.6121   -8.7553    7.2798 C   0  0  0  0  0  0  0  0  0  0  0  0
  -11.2413   -8.6968   13.7509 C   0  0  0  0  0  0  0  0  0  0  0  0
  -10.6173   -9.4724   12.7476 C   0  0  0  0  0  0  0  0  0  0  0  0
   -9.5418   -8.7794   10.5279 C   0  0  0  0  0  0  0  0  0  0  0  0
   -9.2394   -7.6643    9.6998 C   0  0  0  0  0  0  0  0  0  0  0  0
   -9.6301   -6.3571   10.1007 C   0  0  0  0  0  0  0  0  0  0  0  0
  -10.3197   -6.1659   11.3284 C   0  0  0  0  0  0  0  0  0  0  0  0
  -10.6102   -7.2880   12.1660 C   0  0  0  0  0  0  0  0  0  0  0  0
  -10.2250   -8.5822   11.7708 C   0  0  0  0  0  0  0  0  0  0  0  0
  1  6  1  0  0  0  0
  2  4  1  0  0  0  0
  3  7  1  0  0  0  0
  4  5  1  0  0  0  0
  6  2  1  0  0  0  0
  7  8  1  0  0  0  0
  8  9  1  0  0  0  0
  9 10  1  0  0  0  0
 10 11  1  0  0  0  0
 10 12  1  0  0  0  0
 11 13  1  0  0  0  0
 13 15  1  0  0  0  0
 14 12  1  0  0  0  0
 15 14  1  0  0  0  0
 16 18  2  0  0  0  0
 16 22  1  0  0  0  0
 17 23  1  0  0  0  0
 17 29  1  0  0  0  0
 18 19  1  0  0  0  0
 18 26  1  0  0  0  0
 19 20  2  0  0  0  0
 20  3  1  0  0  0  0
 20 21  1  0  0  0  0
 21  5  1  0  0  0  0
 21 22  2  0  0  0  0
 23 24  2  0  0  0  0
 24 30  1  0  0  0  0
 25 26  2  0  0  0  0
 25 30  1  0  0  0  0
 26 27  1  0  0  0  0
 27 28  2  0  0  0  0
 28 29  1  0  0  0  0
 29 30  2  0  0  0  0
M  END
>  <CHROM.1>
-65.55632057,131.50097848,-71.26092638,69.10909223,55.42422554,172.31201419
-92.98152340,-166.49195102,-52.53301356,30.40523937,-158.84939830,-9.10697257
-7.16497126,8.08297096,-0.27893098,-0.94645165,2.13299295

>  <Name>
1uts_lig

>  <RI>
0

>  <Rbt.Current_Directory>
/home/itssahil/PROJECTS/Mol_Feturizer/New_Systems/rnas/1uts

>  <Rbt.Executable>
rbdock ($Id: //depot/dev/client3/rdock/2013.1/src/exe/rbdock.cxx#4 $)

>  <Rbt.Library>
libRbt.so (2013.1, Build901 2013/11/27)

>  <Rbt.Parameter_File>
/export/apps/rDock/src/rDock_2013.1_src/data/scripts/dock_solv.prm

>  <Rbt.Receptor>
prm/blind_docking_100.prm

>  <SCORE>
-27.9665

>  <SCORE.INTER>
-34.0813

>  <SCORE.INTER.CONST>
1

>  <SCORE.INTER.POLAR>
-1.69555

>  <SCORE.INTER.ROT>
10

>  <SCORE.INTER.SOLV>
10.3404

>  <SCORE.INTER.VDW>
-30.7825

>  <SCORE.INTER.norm>
-1.13604

>  <SCORE.INTRA>
5.53531

>  <SCORE.INTRA.DIHEDRAL>
-4.05319

>  <SCORE.INTRA.DIHEDRAL.0>
18.0451

>  <SCORE.INTRA.POLAR>
0.196815

>  <SCORE.INTRA.POLAR.0>
-0.196815

>  <SCORE.INTRA.REPUL>
0

>  <SCORE.INTRA.REPUL.0>
0

>  <SCORE.INTRA.SOLV>
0.0442453

>  <SCORE.INTRA.SOLV.lig_0>
-14.7906

>  <SCORE.INTRA.VDW>
6.87061

>  <SCORE.INTRA.VDW.0>
-0.411701

>  <SCORE.INTRA.norm>
0.18451

>  <SCORE.RESTR>
0.579541

>  <SCORE.RESTR.CAVITY>
0.579541

>  <SCORE.RESTR.norm>
0.019318

>  <SCORE.SYSTEM>
0

>  <SCORE.SYSTEM.CONST>
0

>  <SCORE.SYSTEM.DIHEDRAL>
0

>  <SCORE.SYSTEM.SOLV>
0

>  <SCORE.SYSTEM.norm>
0

>  <SCORE.heavy>
30

>  <SCORE.norm>
-0.932217

>  <RMSD>
18.065

$$$$
1uts_lig
 OpenBabel11021811413D
libRbt.so/2013.1/901 2013/11/27
 30 33  0  0  0  0  0  0  0  0999 V2000
  -10.9814   -7.3428   14.1414 N   0  0  0  0  0  0  0  0  0  0  0  0
  -10.9108   -8.1535   11.8230 C   0  0  0  0  0  0  0  0  0  0  0  0
   -9.9174   -5.1274    7.6992 C   0  0  0  0  0  0  0  0  0  0  0  0
  -10.6208   -6.7632   11.2502 C   0  0  0  0  0  0  0  0  0  0  0  0
  -11.0947   -6.6973    9.8971 O   0  0  0  0  0  0  0  0  0  0  0  0
  -10.2924   -8.2716   13.2172 C   0  0  0  0  0  0  0  0  0  0  0  0
   -9.0039   -4.2592    8.4762 N   0  0  0  0  0  0  0  0  0  0  0  0
   -9.2130   -4.4867    9.9307 C   0  0  0  0  0  0  0  0  0  0  0  0
   -9.5472   -3.1603   10.6195 C   0  0  0  0  0  0  0  0  0  0  0  0
  -10.8486   -2.6610   10.1217 N   0  0  0  0  0  0  0  0  0  0  0  0
  -11.6660   -3.8117    9.6404 C   0  0  0  0  0  0  0  0  0  0  0  0
  -10.6151   -1.6901    9.0155 C   0  0  0  0  0  0  0  0  0  0  0  0
  -13.0173   -3.2964    9.1190 C   0  0  0  0  0  0  0  0  0  0  0  0
  -11.9676   -1.1763    8.4900 C   0  0  0  0  0  0  0  0  0  0  0  0
  -12.7843   -2.3263    8.0117 N   0  0  0  0  0  0  0  0  0  0  0  0
   -8.9219   -9.3503    8.3247 C   0  0  0  0  0  0  0  0  0  0  0  0
   -4.9871  -11.3959    3.6800 N   0  0  0  0  0  0  0  0  0  0  0  0
   -8.3481   -8.6362    7.2458 C   0  0  0  0  0  0  0  0  0  0  0  0
   -8.6753   -7.2681    7.0486 C   0  0  0  0  0  0  0  0  0  0  0  0
   -9.5751   -6.6127    7.9333 C   0  0  0  0  0  0  0  0  0  0  0  0
  -10.1652   -7.3391    9.0109 C   0  0  0  0  0  0  0  0  0  0  0  0
   -9.8315   -8.7074    9.2053 C   0  0  0  0  0  0  0  0  0  0  0  0
   -5.8922  -12.4308    3.3520 C   0  0  0  0  0  0  0  0  0  0  0  0
   -7.1075  -12.2817    4.0580 C   0  0  0  0  0  0  0  0  0  0  0  0
   -7.8625  -10.4866    5.7228 C   0  0  0  0  0  0  0  0  0  0  0  0
   -7.4629   -9.2895    6.3768 C   0  0  0  0  0  0  0  0  0  0  0  0
   -6.1671   -8.7525    6.1428 C   0  0  0  0  0  0  0  0  0  0  0  0
   -5.2742   -9.4107    5.2546 C   0  0  0  0  0  0  0  0  0  0  0  0
   -5.6841  -10.6073    4.5874 C   0  0  0  0  0  0  0  0  0  0  0  0
   -6.9655  -11.1404    4.8182 C   0  0  0  0  0  0  0  0  0  0  0  0
  1  6  1  0  0  0  0
  2  4  1  0  0  0  0
  3  7  1  0  0  0  0
  4  5  1  0  0  0  0
  6  2  1  0  0  0  0
  7  8  1  0  0  0  0
  8  9  1  0  0  0  0
  9 10  1  0  0  0  0
 10 11  1  0  0  0  0
 10 12  1  0  0  0  0
 11 13  1  0  0  0  0
 13 15  1  0  0  0  0
 14 12  1  0  0  0  0
 15 14  1  0  0  0  0
 16 18  2  0  0  0  0
 16 22  1  0  0  0  0
 17 23  1  0  0  0  0
 17 29  1  0  0  0  0
 18 19  1  0  0  0  0
 18 26  1  0  0  0  0
 19 20  2  0  0  0  0
 20  3  1  0  0  0  0
 20 21  1  0  0  0  0
 21  5  1  0  0  0  0
 21 22  2  0  0  0  0
 23 24  2  0  0  0  0
 24 30  1  0  0  0  0
 25 26  2  0  0  0  0
 25 30  1  0  0  0  0
 26 27  1  0  0  0  0
 27 28  2  0  0  0  0
 28 29  1  0  0  0  0
 29 30  2  0  0  0  0
M  END
>  <CHROM.1>
120.74910415,174.75626717,-64.36482078,-79.07528779,66.17464246,-123.98901675
65.40197668,25.45113232,54.73191769,-92.50727437,-121.51470846,-9.27943294
-6.94805325,8.26915648,2.96397677,1.05693299,-0.72140366

>  <Name>
1uts_lig

>  <RI>
0

>  <Rbt.Current_Directory>
/home/itssahil/PROJECTS/Mol_Feturizer/New_Systems/rnas/1uts

>  <Rbt.Executable>
rbdock ($Id: //depot/dev/client3/rdock/2013.1/src/exe/rbdock.cxx#4 $)

>  <Rbt.Library>
libRbt.so (2013.1, Build901 2013/11/27)

>  <Rbt.Parameter_File>
/export/apps/rDock/src/rDock_2013.1_src/data/scripts/dock_solv.prm

>  <Rbt.Receptor>
prm/blind_docking_40.prm

>  <SCORE>
1.75478

>  <SCORE.INTER>
-21.5663

>  <SCORE.INTER.CONST>
1

>  <SCORE.INTER.POLAR>
-2.03693

>  <SCORE.INTER.ROT>
10

>  <SCORE.INTER.SOLV>
9.6672

>  <SCORE.INTER.VDW>
-21.0768

>  <SCORE.INTER.norm>
-0.718875

>  <SCORE.INTRA>
16.9397

>  <SCORE.INTRA.DIHEDRAL>
0.833845

>  <SCORE.INTRA.DIHEDRAL.0>
18.0451

>  <SCORE.INTRA.POLAR>
0.196815

>  <SCORE.INTRA.POLAR.0>
-0.196815

>  <SCORE.INTRA.REPUL>
0

>  <SCORE.INTRA.REPUL.0>
0

>  <SCORE.INTRA.SOLV>
0.366878

>  <SCORE.INTRA.SOLV.lig_0>
-14.7906

>  <SCORE.INTRA.VDW>
15.6702

>  <SCORE.INTRA.VDW.0>
-0.411701

>  <SCORE.INTRA.norm>
0.564658

>  <SCORE.RESTR>
6.38128

>  <SCORE.RESTR.CAVITY>
6.38128

>  <SCORE.RESTR.norm>
0.212709

>  <SCORE.SYSTEM>
0

>  <SCORE.SYSTEM.CONST>
0

>  <SCORE.SYSTEM.DIHEDRAL>
0

>  <SCORE.SYSTEM.SOLV>
0

>  <SCORE.SYSTEM.norm>
0

>  <SCORE.heavy>
30

>  <SCORE.norm>
0.0584927

>  <RMSD>
18.074

$$$$
1uts_lig
 OpenBabel11021811413D
libRbt.so/2013.1/901 2013/11/27
 30 33  0  0  0  0  0  0  0  0999 V2000
   -5.2465  -11.3167    4.5318 N   0  0  0  0  0  0  0  0  0  0  0  0
   -7.6397  -11.8667    4.4458 C   0  0  0  0  0  0  0  0  0  0  0  0
   -6.5893   -9.2660    7.1860 C   0  0  0  0  0  0  0  0  0  0  0  0
   -8.0938  -10.5203    5.0168 C   0  0  0  0  0  0  0  0  0  0  0  0
   -8.9238  -10.7459    6.1657 O   0  0  0  0  0  0  0  0  0  0  0  0
   -6.3629  -11.6705    3.6263 C   0  0  0  0  0  0  0  0  0  0  0  0
   -5.9251   -8.4976    6.1087 N   0  0  0  0  0  0  0  0  0  0  0  0
   -6.6911   -8.6453    4.8428 C   0  0  0  0  0  0  0  0  0  0  0  0
   -6.8908   -7.2719    4.1952 C   0  0  0  0  0  0  0  0  0  0  0  0
   -8.0363   -6.5872    4.8354 N   0  0  0  0  0  0  0  0  0  0  0  0
   -9.3088   -7.1487    4.2974 C   0  0  0  0  0  0  0  0  0  0  0  0
   -7.9553   -5.1250    4.5592 C   0  0  0  0  0  0  0  0  0  0  0  0
  -10.5010   -6.4372    4.9573 C   0  0  0  0  0  0  0  0  0  0  0  0
   -9.1507   -4.4119    5.2164 C   0  0  0  0  0  0  0  0  0  0  0  0
  -10.4212   -4.9749    4.6803 N   0  0  0  0  0  0  0  0  0  0  0  0
  -10.6872   -7.8271    7.7790 C   0  0  0  0  0  0  0  0  0  0  0  0
  -10.5483   -2.2197   10.9356 N   0  0  0  0  0  0  0  0  0  0  0  0
   -9.5937   -7.0955    8.3008 C   0  0  0  0  0  0  0  0  0  0  0  0
   -8.2684   -7.5676    8.1054 C   0  0  0  0  0  0  0  0  0  0  0  0
   -8.0363   -8.7712    7.3847 C   0  0  0  0  0  0  0  0  0  0  0  0
   -9.1414   -9.5159    6.8735 C   0  0  0  0  0  0  0  0  0  0  0  0
  -10.4656   -9.0368    7.0694 C   0  0  0  0  0  0  0  0  0  0  0  0
  -10.3155   -1.3736    9.8276 C   0  0  0  0  0  0  0  0  0  0  0  0
   -9.9561   -2.1244    8.6853 C   0  0  0  0  0  0  0  0  0  0  0  0
   -9.7157   -4.6539    8.3571 C   0  0  0  0  0  0  0  0  0  0  0  0
   -9.8304   -5.9105    9.0115 C   0  0  0  0  0  0  0  0  0  0  0  0
  -10.1922   -5.9635   10.3857 C   0  0  0  0  0  0  0  0  0  0  0  0
  -10.4409   -4.7620   11.1027 C   0  0  0  0  0  0  0  0  0  0  0  0
  -10.3383   -3.5001   10.4379 C   0  0  0  0  0  0  0  0  0  0  0  0
   -9.9798   -3.4456    9.0785 C   0  0  0  0  0  0  0  0  0  0  0  0
  1  6  1  0  0  0  0
  2  4  1  0  0  0  0
  3  7  1  0  0  0  0
  4  5  1  0  0  0  0
  6  2  1  0  0  0  0
  7  8  1  0  0  0  0
  8  9  1  0  0  0  0
  9 10  1  0  0  0  0
 10 11  1  0  0  0  0
 10 12  1  0  0  0  0
 11 13  1  0  0  0  0
 13 15  1  0  0  0  0
 14 12  1  0  0  0  0
 15 14  1  0  0  0  0
 16 18  2  0  0  0  0
 16 22  1  0  0  0  0
 17 23  1  0  0  0  0
 17 29  1  0  0  0  0
 18 19  1  0  0  0  0
 18 26  1  0  0  0  0
 19 20  2  0  0  0  0
 20  3  1  0  0  0  0
 20 21  1  0  0  0  0
 21  5  1  0  0  0  0
 21 22  2  0  0  0  0
 23 24  2  0  0  0  0
 24 30  1  0  0  0  0
 25 26  2  0  0  0  0
 25 30  1  0  0  0  0
 26 27  1  0  0  0  0
 27 28  2  0  0  0  0
 28 29  1  0  0  0  0
 29 30  2  0  0  0  0
M  END
>  <CHROM.1>
-126.59918177,-157.39354487,-58.65603802,168.47568612,68.50114645,132.68019631
-81.70928959,-78.08767055,-97.84328895,-78.14701471,-58.78329579,-8.76787681
-7.02044237,6.82168347,0.21425773,-1.19398305,2.39528798

>  <Name>
1uts_lig

>  <RI>
0

>  <Rbt.Current_Directory>
/home/itssahil/PROJECTS/Mol_Feturizer/New_Systems/rnas/1uts

>  <Rbt.Executable>
rbdock ($Id: //depot/dev/client3/rdock/2013.1/src/exe/rbdock.cxx#4 $)

>  <Rbt.Library>
libRbt.so (2013.1, Build901 2013/11/27)

>  <Rbt.Parameter_File>
/export/apps/rDock/src/rDock_2013.1_src/data/scripts/dock_solv.prm

>  <Rbt.Receptor>
prm/blind_docking_60.prm

>  <SCORE>
-5.25012

>  <SCORE.INTER>
-21.4728

>  <SCORE.INTER.CONST>
1

>  <SCORE.INTER.POLAR>
-1.286

>  <SCORE.INTER.ROT>
10

>  <SCORE.INTER.SOLV>
8.5923

>  <SCORE.INTER.VDW>
-23.1593

>  <SCORE.INTER.norm>
-0.715758

>  <SCORE.INTRA>
14.094

>  <SCORE.INTRA.DIHEDRAL>
2.59402

>  <SCORE.INTRA.DIHEDRAL.0>
18.0451

>  <SCORE.INTRA.POLAR>
0.196815

>  <SCORE.INTRA.POLAR.0>
-0.196815

>  <SCORE.INTRA.REPUL>
0

>  <SCORE.INTRA.REPUL.0>
0

>  <SCORE.INTRA.SOLV>
1.08469

>  <SCORE.INTRA.SOLV.lig_0>
-14.7906

>  <SCORE.INTRA.VDW>
11.5855

>  <SCORE.INTRA.VDW.0>
-0.411701

>  <SCORE.INTRA.norm>
0.4698

>  <SCORE.RESTR>
2.12862

>  <SCORE.RESTR.CAVITY>
2.12862

>  <SCORE.RESTR.norm>
0.0709541

>  <SCORE.SYSTEM>
0

>  <SCORE.SYSTEM.CONST>
0

>  <SCORE.SYSTEM.DIHEDRAL>
0

>  <SCORE.SYSTEM.SOLV>
0

>  <SCORE.SYSTEM.norm>
0

>  <SCORE.heavy>
30

>  <SCORE.norm>
-0.175004

>  <RMSD>
18.078

$$$$
1uts_lig
 OpenBabel11021811413D
libRbt.so/2013.1/901 2013/11/27
 30 33  0  0  0  0  0  0  0  0999 V2000
   -9.9350   -1.1193    8.5873 N   0  0  0  0  0  0  0  0  0  0  0  0
  -11.4076   -3.0832    8.4779 C   0  0  0  0  0  0  0  0  0  0  0  0
  -11.4948   -7.2662    7.5932 C   0  0  0  0  0  0  0  0  0  0  0  0
  -10.9234   -4.4826    8.0874 C   0  0  0  0  0  0  0  0  0  0  0  0
  -10.7942   -4.5607    6.6602 O   0  0  0  0  0  0  0  0  0  0  0  0
  -10.3176   -2.3702    9.2803 C   0  0  0  0  0  0  0  0  0  0  0  0
  -11.1120   -7.4218    9.0150 N   0  0  0  0  0  0  0  0  0  0  0  0
  -11.8779   -6.4575    9.8483 C   0  0  0  0  0  0  0  0  0  0  0  0
  -11.0846   -6.1235   11.1150 C   0  0  0  0  0  0  0  0  0  0  0  0
  -11.2118   -7.2357   12.0834 N   0  0  0  0  0  0  0  0  0  0  0  0
  -10.7878   -6.7643   13.4331 C   0  0  0  0  0  0  0  0  0  0  0  0
  -10.3615   -8.3765   11.6402 C   0  0  0  0  0  0  0  0  0  0  0  0
  -10.9148   -7.9180   14.4410 C   0  0  0  0  0  0  0  0  0  0  0  0
  -10.4851   -9.5311   12.6507 C   0  0  0  0  0  0  0  0  0  0  0  0
  -10.0637   -9.0589   13.9989 N   0  0  0  0  0  0  0  0  0  0  0  0
   -7.9392   -6.5061    5.1449 C   0  0  0  0  0  0  0  0  0  0  0  0
   -4.9873  -12.1723    4.1217 N   0  0  0  0  0  0  0  0  0  0  0  0
   -8.2308   -7.8183    5.5880 C   0  0  0  0  0  0  0  0  0  0  0  0
   -9.3843   -8.0576    6.3814 C   0  0  0  0  0  0  0  0  0  0  0  0
  -10.2489   -6.9837    6.7295 C   0  0  0  0  0  0  0  0  0  0  0  0
   -9.9442   -5.6586    6.2953 C   0  0  0  0  0  0  0  0  0  0  0  0
   -8.7897   -5.4256    5.4987 C   0  0  0  0  0  0  0  0  0  0  0  0
   -6.0292  -13.1049    3.9154 C   0  0  0  0  0  0  0  0  0  0  0  0
   -7.2886  -12.5238    4.1874 C   0  0  0  0  0  0  0  0  0  0  0  0
   -7.9082  -10.1499    4.9253 C   0  0  0  0  0  0  0  0  0  0  0  0
   -7.3728   -8.8718    5.2420 C   0  0  0  0  0  0  0  0  0  0  0  0
   -5.9670   -8.6620    5.2005 C   0  0  0  0  0  0  0  0  0  0  0  0
   -5.0991   -9.7283    4.8407 C   0  0  0  0  0  0  0  0  0  0  0  0
   -5.6417  -11.0091    4.5091 C   0  0  0  0  0  0  0  0  0  0  0  0
   -7.0323  -11.2187    4.5502 C   0  0  0  0  0  0  0  0  0  0  0  0
  1  6  1  0  0  0  0
  2  4  1  0  0  0  0
  3  7  1  0  0  0  0
  4  5  1  0  0  0  0
  6  2  1  0  0  0  0
  7  8  1  0  0  0  0
  8  9  1  0  0  0  0
  9 10  1  0  0  0  0
 10 11  1  0  0  0  0
 10 12  1  0  0  0  0
 11 13  1  0  0  0  0
 13 15  1  0  0  0  0
 14 12  1  0  0  0  0
 15 14  1  0  0  0  0
 16 18  2  0  0  0  0
 16 22  1  0  0  0  0
 17 23  1  0  0  0  0
 17 29  1  0  0  0  0
 18 19  1  0  0  0  0
 18 26  1  0  0  0  0
 19 20  2  0  0  0  0
 20  3  1  0  0  0  0
 20 21  1  0  0  0  0
 21  5  1  0  0  0  0
 21 22  2  0  0  0  0
 23 24  2  0  0  0  0
 24 30  1  0  0  0  0
 25 26  2  0  0  0  0
 25 30  1  0  0  0  0
 26 27  1  0  0  0  0
 27 28  2  0  0  0  0
 28 29  1  0  0  0  0
 29 30  2  0  0  0  0
M  END
>  <CHROM.1>
-159.18480009,-114.72803563,124.03224075,160.83418393,121.15866449,-153.26563063
-77.71118776,-163.84646496,-142.14545106,77.84218876,56.42043615,-9.24008449
-7.55114050,7.96296527,3.05008792,-1.07185496,2.39846322

>  <Name>
1uts_lig

>  <RI>
0

>  <Rbt.Current_Directory>
/home/itssahil/PROJECTS/Mol_Feturizer/New_Systems/rnas/1uts

>  <Rbt.Executable>
rbdock ($Id: //depot/dev/client3/rdock/2013.1/src/exe/rbdock.cxx#4 $)

>  <Rbt.Library>
libRbt.so (2013.1, Build901 2013/11/27)

>  <Rbt.Parameter_File>
/export/apps/rDock/src/rDock_2013.1_src/data/scripts/dock_solv.prm

>  <Rbt.Receptor>
prm/blind_docking_60.prm

>  <SCORE>
-14.5236

>  <SCORE.INTER>
-27.3358

>  <SCORE.INTER.CONST>
1

>  <SCORE.INTER.POLAR>
-2.69418

>  <SCORE.INTER.ROT>
10

>  <SCORE.INTER.SOLV>
10.7766

>  <SCORE.INTER.VDW>
-23.1021

>  <SCORE.INTER.norm>
-0.911194

>  <SCORE.INTRA>
9.46824

>  <SCORE.INTRA.DIHEDRAL>
8.12977

>  <SCORE.INTRA.DIHEDRAL.0>
18.0451

>  <SCORE.INTRA.POLAR>
0.196815

>  <SCORE.INTRA.POLAR.0>
-0.196815

>  <SCORE.INTRA.REPUL>
0

>  <SCORE.INTRA.REPUL.0>
0

>  <SCORE.INTRA.SOLV>
-0.079892

>  <SCORE.INTRA.SOLV.lig_0>
-14.7906

>  <SCORE.INTRA.VDW>
4.77413

>  <SCORE.INTRA.VDW.0>
-0.411701

>  <SCORE.INTRA.norm>
0.315608

>  <SCORE.RESTR>
3.34395

>  <SCORE.RESTR.CAVITY>
3.34395

>  <SCORE.RESTR.norm>
0.111465

>  <SCORE.SYSTEM>
0

>  <SCORE.SYSTEM.CONST>
0

>  <SCORE.SYSTEM.DIHEDRAL>
0

>  <SCORE.SYSTEM.SOLV>
0

>  <SCORE.SYSTEM.norm>
0

>  <SCORE.heavy>
30

>  <SCORE.norm>
-0.484121

>  <RMSD>
18.114

$$$$
1uts_lig
 OpenBabel11021811413D
libRbt.so/2013.1/901 2013/11/27
 30 33  0  0  0  0  0  0  0  0999 V2000
  -10.6575   -9.0723   14.3313 N   0  0  0  0  0  0  0  0  0  0  0  0
  -10.5991   -8.2793   12.0064 C   0  0  0  0  0  0  0  0  0  0  0  0
  -12.7696   -6.9998    8.5407 C   0  0  0  0  0  0  0  0  0  0  0  0
  -11.7006   -7.2648   11.6861 C   0  0  0  0  0  0  0  0  0  0  0  0
  -11.1570   -6.2113   10.8771 O   0  0  0  0  0  0  0  0  0  0  0  0
  -10.0872   -8.0465   13.4291 C   0  0  0  0  0  0  0  0  0  0  0  0
  -13.1495   -5.5761    8.6857 N   0  0  0  0  0  0  0  0  0  0  0  0
  -12.7941   -4.8342    7.4471 C   0  0  0  0  0  0  0  0  0  0  0  0
  -12.8356   -3.3271    7.7163 C   0  0  0  0  0  0  0  0  0  0  0  0
  -11.8965   -2.9964    8.8116 N   0  0  0  0  0  0  0  0  0  0  0  0
  -11.8320   -1.5154    8.9745 C   0  0  0  0  0  0  0  0  0  0  0  0
  -10.5484   -3.5433    8.4888 C   0  0  0  0  0  0  0  0  0  0  0  0
  -10.8545   -1.1679   10.1089 C   0  0  0  0  0  0  0  0  0  0  0  0
   -9.5678   -3.1927    9.6224 C   0  0  0  0  0  0  0  0  0  0  0  0
   -9.5057   -1.7136    9.7860 N   0  0  0  0  0  0  0  0  0  0  0  0
   -8.4107   -7.4581    8.6111 C   0  0  0  0  0  0  0  0  0  0  0  0
   -6.5166  -10.3180    3.1541 N   0  0  0  0  0  0  0  0  0  0  0  0
   -9.1509   -7.8660    7.4757 C   0  0  0  0  0  0  0  0  0  0  0  0
  -10.5631   -7.7151    7.4596 C   0  0  0  0  0  0  0  0  0  0  0  0
  -11.2356   -7.1527    8.5792 C   0  0  0  0  0  0  0  0  0  0  0  0
  -10.4890   -6.7572    9.7295 C   0  0  0  0  0  0  0  0  0  0  0  0
   -9.0752   -6.9078    9.7387 C   0  0  0  0  0  0  0  0  0  0  0  0
   -6.4918  -11.6278    3.6848 C   0  0  0  0  0  0  0  0  0  0  0  0
   -7.0818  -11.6640    4.9686 C   0  0  0  0  0  0  0  0  0  0  0  0
   -8.1542   -9.8042    6.3669 C   0  0  0  0  0  0  0  0  0  0  0  0
   -8.4811   -8.4209    6.3761 C   0  0  0  0  0  0  0  0  0  0  0  0
   -8.1339   -7.6031    5.2658 C   0  0  0  0  0  0  0  0  0  0  0  0
   -7.4632   -8.1688    4.1479 C   0  0  0  0  0  0  0  0  0  0  0  0
   -7.1480   -9.5636    4.1356 C   0  0  0  0  0  0  0  0  0  0  0  0
   -7.4902  -10.3742    5.2335 C   0  0  0  0  0  0  0  0  0  0  0  0
  1  6  1  0  0  0  0
  2  4  1  0  0  0  0
  3  7  1  0  0  0  0
  4  5  1  0  0  0  0
  6  2  1  0  0  0  0
  7  8  1  0  0  0  0
  8  9  1  0  0  0  0
  9 10  1  0  0  0  0
 10 11  1  0  0  0  0
 10 12  1  0  0  0  0
 11 13  1  0  0  0  0
 13 15  1  0  0  0  0
 14 12  1  0  0  0  0
 15 14  1  0  0  0  0
 16 18  2  0  0  0  0
 16 22  1  0  0  0  0
 17 23  1  0  0  0  0
 17 29  1  0  0  0  0
 18 19  1  0  0  0  0
 18 26  1  0  0  0  0
 19 20  2  0  0  0  0
 20  3  1  0  0  0  0
 20 21  1  0  0  0  0
 21  5  1  0  0  0  0
 21 22  2  0  0  0  0
 23 24  2  0  0  0  0
 24 30  1  0  0  0  0
 25 26  2  0  0  0  0
 25 30  1  0  0  0  0
 26 27  1  0  0  0  0
 27 28  2  0  0  0  0
 28 29  1  0  0  0  0
 29 30  2  0  0  0  0
M  END
>  <CHROM.1>
26.10432907,101.33868790,71.18031039,52.80767623,102.89041385,-165.14374401
58.33803912,174.09129875,83.79582305,-119.96426754,81.23303550,-9.94268079
-6.73442228,8.31669317,3.12692377,1.10600704,-0.80758659

>  <Name>
1uts_lig

>  <RI>
0

>  <Rbt.Current_Directory>
/home/itssahil/PROJECTS/Mol_Feturizer/New_Systems/rnas/1uts

>  <Rbt.Executable>
rbdock ($Id: //depot/dev/client3/rdock/2013.1/src/exe/rbdock.cxx#4 $)

>  <Rbt.Library>
libRbt.so (2013.1, Build901 2013/11/27)

>  <Rbt.Parameter_File>
/export/apps/rDock/src/rDock_2013.1_src/data/scripts/dock_solv.prm

>  <Rbt.Receptor>
prm/blind_docking_100.prm

>  <SCORE>
-8.77802

>  <SCORE.INTER>
-14.8716

>  <SCORE.INTER.CONST>
1

>  <SCORE.INTER.POLAR>
-1.70504

>  <SCORE.INTER.ROT>
10

>  <SCORE.INTER.SOLV>
7.23876

>  <SCORE.INTER.VDW>
-16.9105

>  <SCORE.INTER.norm>
-0.495719

>  <SCORE.INTRA>
3.92212

>  <SCORE.INTRA.DIHEDRAL>
4.24416

>  <SCORE.INTRA.DIHEDRAL.0>
18.0451

>  <SCORE.INTRA.POLAR>
-0.0644004

>  <SCORE.INTRA.POLAR.0>
-0.196815

>  <SCORE.INTRA.REPUL>
0

>  <SCORE.INTRA.REPUL.0>
0

>  <SCORE.INTRA.SOLV>
0.176759

>  <SCORE.INTRA.SOLV.lig_0>
-14.7906

>  <SCORE.INTRA.VDW>
1.93062

>  <SCORE.INTRA.VDW.0>
-0.411701

>  <SCORE.INTRA.norm>
0.130737

>  <SCORE.RESTR>
2.17145

>  <SCORE.RESTR.CAVITY>
2.17145

>  <SCORE.RESTR.norm>
0.0723816

>  <SCORE.SYSTEM>
0

>  <SCORE.SYSTEM.CONST>
0

>  <SCORE.SYSTEM.DIHEDRAL>
0

>  <SCORE.SYSTEM.SOLV>
0

>  <SCORE.SYSTEM.norm>
0

>  <SCORE.heavy>
30

>  <SCORE.norm>
-0.292601

>  <RMSD>
18.121

$$$$
1uts_lig
 OpenBabel11021811413D
libRbt.so/2013.1/901 2013/11/27
 30 33  0  0  0  0  0  0  0  0999 V2000
  -11.5302   -5.7433   12.1633 N   0  0  0  0  0  0  0  0  0  0  0  0
  -10.7633   -8.0704   11.9794 C   0  0  0  0  0  0  0  0  0  0  0  0
  -10.9255   -6.5317    8.1831 C   0  0  0  0  0  0  0  0  0  0  0  0
   -9.3423   -7.5328   11.7870 C   0  0  0  0  0  0  0  0  0  0  0  0
   -9.3126   -6.6637   10.6453 O   0  0  0  0  0  0  0  0  0  0  0  0
  -11.7737   -7.0349   11.4822 C   0  0  0  0  0  0  0  0  0  0  0  0
  -10.7018   -5.2720    7.4381 N   0  0  0  0  0  0  0  0  0  0  0  0
  -11.9471   -4.4595    7.4426 C   0  0  0  0  0  0  0  0  0  0  0  0
  -12.5304   -4.4137    8.8579 C   0  0  0  0  0  0  0  0  0  0  0  0
  -11.8047   -3.4011    9.6573 N   0  0  0  0  0  0  0  0  0  0  0  0
  -11.7372   -2.1241    8.8901 C   0  0  0  0  0  0  0  0  0  0  0  0
  -10.4331   -3.8998    9.9588 C   0  0  0  0  0  0  0  0  0  0  0  0
  -10.9806   -1.0710    9.7157 C   0  0  0  0  0  0  0  0  0  0  0  0
   -9.6732   -2.8444   10.7824 C   0  0  0  0  0  0  0  0  0  0  0  0
   -9.6083   -1.5687   10.0165 N   0  0  0  0  0  0  0  0  0  0  0  0
   -7.2125   -8.8514    8.4013 C   0  0  0  0  0  0  0  0  0  0  0  0
   -5.9925  -11.8282    2.8772 N   0  0  0  0  0  0  0  0  0  0  0  0
   -7.9679   -8.8284    7.2046 C   0  0  0  0  0  0  0  0  0  0  0  0
   -9.1704   -8.0751    7.1408 C   0  0  0  0  0  0  0  0  0  0  0  0
   -9.6163   -7.3414    8.2743 C   0  0  0  0  0  0  0  0  0  0  0  0
   -8.8615   -7.3791    9.4851 C   0  0  0  0  0  0  0  0  0  0  0  0
   -7.6570   -8.1324    9.5421 C   0  0  0  0  0  0  0  0  0  0  0  0
   -4.7334  -12.1383    3.4396 C   0  0  0  0  0  0  0  0  0  0  0  0
   -4.5947  -11.5558    4.7199 C   0  0  0  0  0  0  0  0  0  0  0  0
   -6.2230  -10.1309    6.0918 C   0  0  0  0  0  0  0  0  0  0  0  0
   -7.5228   -9.5555    6.0916 C   0  0  0  0  0  0  0  0  0  0  0  0
   -8.3726   -9.7246    4.9641 C   0  0  0  0  0  0  0  0  0  0  0  0
   -7.9237  -10.4696    3.8403 C   0  0  0  0  0  0  0  0  0  0  0  0
   -6.6207  -11.0590    3.8492 C   0  0  0  0  0  0  0  0  0  0  0  0
   -5.7783  -10.8923    4.9636 C   0  0  0  0  0  0  0  0  0  0  0  0
  1  6  1  0  0  0  0
  2  4  1  0  0  0  0
  3  7  1  0  0  0  0
  4  5  1  0  0  0  0
  6  2  1  0  0  0  0
  7  8  1  0  0  0  0
  8  9  1  0  0  0  0
  9 10  1  0  0  0  0
 10 11  1  0  0  0  0
 10 12  1  0  0  0  0
 11 13  1  0  0  0  0
 13 15  1  0  0  0  0
 14 12  1  0  0  0  0
 15 14  1  0  0  0  0
 16 18  2  0  0  0  0
 16 22  1  0  0  0  0
 17 23  1  0  0  0  0
 17 29  1  0  0  0  0
 18 19  1  0  0  0  0
 18 26  1  0  0  0  0
 19 20  2  0  0  0  0
 20  3  1  0  0  0  0
 20 21  1  0  0  0  0
 21  5  1  0  0  0  0
 21 22  2  0  0  0  0
 23 24  2  0  0  0  0
 24 30  1  0  0  0  0
 25 26  2  0  0  0  0
 25 30  1  0  0  0  0
 26 27  1  0  0  0  0
 27 28  2  0  0  0  0
 28 29  1  0  0  0  0
 29 30  2  0  0  0  0
M  END
>  <CHROM.1>
59.41899222,-30.54387317,-175.99721219,-96.67218657,-54.80996510,46.40635732
80.41755756,49.59781119,-10.13371934,-77.27121106,128.55129372,-9.14891499
-7.05762164,8.11566124,-2.95707344,1.07581144,-1.11374751

>  <Name>
1uts_lig

>  <RI>
0

>  <Rbt.Current_Directory>
/home/itssahil/PROJECTS/Mol_Feturizer/New_Systems/rnas/1uts

>  <Rbt.Executable>
rbdock ($Id: //depot/dev/client3/rdock/2013.1/src/exe/rbdock.cxx#4 $)

>  <Rbt.Library>
libRbt.so (2013.1, Build901 2013/11/27)

>  <Rbt.Parameter_File>
/export/apps/rDock/src/rDock_2013.1_src/data/scripts/dock_solv.prm

>  <Rbt.Receptor>
prm/blind_docking_100.prm

>  <SCORE>
-1.41595

>  <SCORE.INTER>
-12.7097

>  <SCORE.INTER.CONST>
1

>  <SCORE.INTER.POLAR>
0

>  <SCORE.INTER.ROT>
10

>  <SCORE.INTER.SOLV>
8.0457

>  <SCORE.INTER.VDW>
-21.4217

>  <SCORE.INTER.norm>
-0.423656

>  <SCORE.INTRA>
9.06074

>  <SCORE.INTRA.DIHEDRAL>
-4.45534

>  <SCORE.INTRA.DIHEDRAL.0>
18.0451

>  <SCORE.INTRA.POLAR>
-0.112818

>  <SCORE.INTRA.POLAR.0>
-0.196815

>  <SCORE.INTRA.REPUL>
0

>  <SCORE.INTRA.REPUL.0>
0

>  <SCORE.INTRA.SOLV>
1.05688

>  <SCORE.INTRA.SOLV.lig_0>
-14.7906

>  <SCORE.INTRA.VDW>
11.1435

>  <SCORE.INTRA.VDW.0>
-0.411701

>  <SCORE.INTRA.norm>
0.302025

>  <SCORE.RESTR>
2.233

>  <SCORE.RESTR.CAVITY>
2.233

>  <SCORE.RESTR.norm>
0.0744332

>  <SCORE.SYSTEM>
0

>  <SCORE.SYSTEM.CONST>
0

>  <SCORE.SYSTEM.DIHEDRAL>
0

>  <SCORE.SYSTEM.SOLV>
0

>  <SCORE.SYSTEM.norm>
0

>  <SCORE.heavy>
30

>  <SCORE.norm>
-0.0471983

>  <RMSD>
18.123

$$$$
1uts_lig
 OpenBabel11021811413D
libRbt.so/2013.1/901 2013/11/27
 30 33  0  0  0  0  0  0  0  0999 V2000
  -11.1489   -7.5530   14.1343 N   0  0  0  0  0  0  0  0  0  0  0  0
  -10.9088   -7.6787   11.6922 C   0  0  0  0  0  0  0  0  0  0  0  0
   -9.3154   -5.0141    7.7800 C   0  0  0  0  0  0  0  0  0  0  0  0
   -9.6528   -6.8044   11.7508 C   0  0  0  0  0  0  0  0  0  0  0  0
   -9.5200   -6.0787   10.5197 O   0  0  0  0  0  0  0  0  0  0  0  0
  -11.0335   -8.4824   12.9879 C   0  0  0  0  0  0  0  0  0  0  0  0
  -10.3356   -4.9715    6.7079 N   0  0  0  0  0  0  0  0  0  0  0  0
  -11.6432   -5.4362    7.2421 C   0  0  0  0  0  0  0  0  0  0  0  0
  -12.5527   -4.2323    7.5047 C   0  0  0  0  0  0  0  0  0  0  0  0
  -12.2355   -3.6553    8.8304 N   0  0  0  0  0  0  0  0  0  0  0  0
  -10.9674   -2.8761    8.7376 C   0  0  0  0  0  0  0  0  0  0  0  0
  -12.0990   -4.7541    9.8278 C   0  0  0  0  0  0  0  0  0  0  0  0
  -10.6327   -2.2783   10.1138 C   0  0  0  0  0  0  0  0  0  0  0  0
  -11.7601   -4.1570   11.2055 C   0  0  0  0  0  0  0  0  0  0  0  0
  -10.4948   -3.3770   11.1114 N   0  0  0  0  0  0  0  0  0  0  0  0
   -8.3170   -9.1750    8.7315 C   0  0  0  0  0  0  0  0  0  0  0  0
   -6.3440  -12.2179    3.4272 N   0  0  0  0  0  0  0  0  0  0  0  0
   -8.2225   -8.7074    7.3989 C   0  0  0  0  0  0  0  0  0  0  0  0
   -8.5480   -7.3580    7.0974 C   0  0  0  0  0  0  0  0  0  0  0  0
   -8.9654   -6.4745    8.1304 C   0  0  0  0  0  0  0  0  0  0  0  0
   -9.0757   -6.9525    9.4707 C   0  0  0  0  0  0  0  0  0  0  0  0
   -8.7456   -8.3033    9.7671 C   0  0  0  0  0  0  0  0  0  0  0  0
   -4.9637  -12.0337    3.6696 C   0  0  0  0  0  0  0  0  0  0  0  0
   -4.7535  -11.0981    4.7078 C   0  0  0  0  0  0  0  0  0  0  0  0
   -6.4264   -9.7949    6.1457 C   0  0  0  0  0  0  0  0  0  0  0  0
   -7.8116   -9.5847    6.3856 C   0  0  0  0  0  0  0  0  0  0  0  0
   -8.7790  -10.2709    5.6010 C   0  0  0  0  0  0  0  0  0  0  0  0
   -8.3611  -11.1670    4.5802 C   0  0  0  0  0  0  0  0  0  0  0  0
   -6.9669  -11.3868    4.3505 C   0  0  0  0  0  0  0  0  0  0  0  0
   -6.0083  -10.7085    5.1254 C   0  0  0  0  0  0  0  0  0  0  0  0
  1  6  1  0  0  0  0
  2  4  1  0  0  0  0
  3  7  1  0  0  0  0
  4  5  1  0  0  0  0
  6  2  1  0  0  0  0
  7  8  1  0  0  0  0
  8  9  1  0  0  0  0
  9 10  1  0  0  0  0
 10 11  1  0  0  0  0
 10 12  1  0  0  0  0
 11 13  1  0  0  0  0
 13 15  1  0  0  0  0
 14 12  1  0  0  0  0
 15 14  1  0  0  0  0
 16 18  2  0  0  0  0
 16 22  1  0  0  0  0
 17 23  1  0  0  0  0
 17 29  1  0  0  0  0
 18 19  1  0  0  0  0
 18 26  1  0  0  0  0
 19 20  2  0  0  0  0
 20  3  1  0  0  0  0
 20 21  1  0  0  0  0
 21  5  1  0  0  0  0
 21 22  2  0  0  0  0
 23 24  2  0  0  0  0
 24 30  1  0  0  0  0
 25 26  2  0  0  0  0
 25 30  1  0  0  0  0
 26 27  1  0  0  0  0
 27 28  2  0  0  0  0
 28 29  1  0  0  0  0
 29 30  2  0  0  0  0
M  END
>  <CHROM.1>
41.13321449,178.48547375,70.45210991,-74.46872778,60.68487438,102.63267917
-83.46261662,76.03560590,-84.54191670,54.33797112,175.41134277,-9.32418531
-7.28880437,8.28642750,-2.86995928,1.05260860,-1.13585037

>  <Name>
1uts_lig

>  <RI>
0

>  <Rbt.Current_Directory>
/home/itssahil/PROJECTS/Mol_Feturizer/New_Systems/rnas/1uts

>  <Rbt.Executable>
rbdock ($Id: //depot/dev/client3/rdock/2013.1/src/exe/rbdock.cxx#4 $)

>  <Rbt.Library>
libRbt.so (2013.1, Build901 2013/11/27)

>  <Rbt.Parameter_File>
/export/apps/rDock/src/rDock_2013.1_src/data/scripts/dock_solv.prm

>  <Rbt.Receptor>
prm/blind_docking_100.prm

>  <SCORE>
-17

>  <SCORE.INTER>
-24.9594

>  <SCORE.INTER.CONST>
1

>  <SCORE.INTER.POLAR>
-1.45411

>  <SCORE.INTER.ROT>
10

>  <SCORE.INTER.SOLV>
7.47277

>  <SCORE.INTER.VDW>
-24.5501

>  <SCORE.INTER.norm>
-0.831978

>  <SCORE.INTRA>
5.18995

>  <SCORE.INTRA.DIHEDRAL>
-5.17014

>  <SCORE.INTRA.DIHEDRAL.0>
18.0451

>  <SCORE.INTRA.POLAR>
-0.513008

>  <SCORE.INTRA.POLAR.0>
-0.196815

>  <SCORE.INTRA.REPUL>
0

>  <SCORE.INTRA.REPUL.0>
0

>  <SCORE.INTRA.SOLV>
0.565929

>  <SCORE.INTRA.SOLV.lig_0>
-14.7906

>  <SCORE.INTRA.VDW>
9.23628

>  <SCORE.INTRA.VDW.0>
-0.411701

>  <SCORE.INTRA.norm>
0.172998

>  <SCORE.RESTR>
2.76942

>  <SCORE.RESTR.CAVITY>
2.76942

>  <SCORE.RESTR.norm>
0.092314

>  <SCORE.SYSTEM>
0

>  <SCORE.SYSTEM.CONST>
0

>  <SCORE.SYSTEM.DIHEDRAL>
0

>  <SCORE.SYSTEM.SOLV>
0

>  <SCORE.SYSTEM.norm>
0

>  <SCORE.heavy>
30

>  <SCORE.norm>
-0.566666

>  <RMSD>
18.137

$$$$
1uts_lig
 OpenBabel11021811413D
libRbt.so/2013.1/901 2013/11/27
 30 33  0  0  0  0  0  0  0  0999 V2000
   -5.4868  -12.8807    3.9934 N   0  0  0  0  0  0  0  0  0  0  0  0
   -5.4028  -10.6991    5.1208 C   0  0  0  0  0  0  0  0  0  0  0  0
   -8.8986   -6.8829    4.6265 C   0  0  0  0  0  0  0  0  0  0  0  0
   -6.4765  -10.0201    4.2656 C   0  0  0  0  0  0  0  0  0  0  0  0
   -6.5193   -8.6200    4.5784 O   0  0  0  0  0  0  0  0  0  0  0  0
   -4.6293  -11.7053    4.2667 C   0  0  0  0  0  0  0  0  0  0  0  0
   -9.9349   -5.8895    4.9890 N   0  0  0  0  0  0  0  0  0  0  0  0
   -9.2858   -4.6231    5.4201 C   0  0  0  0  0  0  0  0  0  0  0  0
   -9.1367   -4.6104    6.9442 C   0  0  0  0  0  0  0  0  0  0  0  0
  -10.3902   -4.1172    7.5577 N   0  0  0  0  0  0  0  0  0  0  0  0
  -10.0694   -3.4025    8.8266 C   0  0  0  0  0  0  0  0  0  0  0  0
  -11.2965   -5.2697    7.8247 C   0  0  0  0  0  0  0  0  0  0  0  0
  -11.3695   -2.8921    9.4688 C   0  0  0  0  0  0  0  0  0  0  0  0
  -12.5972   -4.7602    8.4712 C   0  0  0  0  0  0  0  0  0  0  0  0
  -12.2758   -4.0445    9.7372 N   0  0  0  0  0  0  0  0  0  0  0  0
   -7.3661   -8.8170    8.2493 C   0  0  0  0  0  0  0  0  0  0  0  0
  -10.9996   -7.3594   13.3192 N   0  0  0  0  0  0  0  0  0  0  0  0
   -8.5018   -7.9752    8.3182 C   0  0  0  0  0  0  0  0  0  0  0  0
   -8.9929   -7.3512    7.1405 C   0  0  0  0  0  0  0  0  0  0  0  0
   -8.3493   -7.5719    5.8920 C   0  0  0  0  0  0  0  0  0  0  0  0
   -7.1945   -8.4081    5.8276 C   0  0  0  0  0  0  0  0  0  0  0  0
   -6.7092   -9.0326    7.0092 C   0  0  0  0  0  0  0  0  0  0  0  0
  -11.1940   -8.7334   13.5879 C   0  0  0  0  0  0  0  0  0  0  0  0
  -10.7170   -9.5292   12.5217 C   0  0  0  0  0  0  0  0  0  0  0  0
   -9.5875   -8.8676   10.3193 C   0  0  0  0  0  0  0  0  0  0  0  0
   -9.1302   -7.7611    9.5531 C   0  0  0  0  0  0  0  0  0  0  0  0
   -9.3051   -6.4381   10.0442 C   0  0  0  0  0  0  0  0  0  0  0  0
   -9.9340   -6.2230   11.3003 C   0  0  0  0  0  0  0  0  0  0  0  0
  -10.3804   -7.3389   12.0753 C   0  0  0  0  0  0  0  0  0  0  0  0
  -10.2088   -8.6485   11.5907 C   0  0  0  0  0  0  0  0  0  0  0  0
  1  6  1  0  0  0  0
  2  4  1  0  0  0  0
  3  7  1  0  0  0  0
  4  5  1  0  0  0  0
  6  2  1  0  0  0  0
  7  8  1  0  0  0  0
  8  9  1  0  0  0  0
  9 10  1  0  0  0  0
 10 11  1  0  0  0  0
 10 12  1  0  0  0  0
 11 13  1  0  0  0  0
 13 15  1  0  0  0  0
 14 12  1  0  0  0  0
 15 14  1  0  0  0  0
 16 18  2  0  0  0  0
 16 22  1  0  0  0  0
 17 23  1  0  0  0  0
 17 29  1  0  0  0  0
 18 19  1  0  0  0  0
 18 26  1  0  0  0  0
 19 20  2  0  0  0  0
 20  3  1  0  0  0  0
 20 21  1  0  0  0  0
 21  5  1  0  0  0  0
 21 22  2  0  0  0  0
 23 24  2  0  0  0  0
 24 30  1  0  0  0  0
 25 26  2  0  0  0  0
 25 30  1  0  0  0  0
 26 27  1  0  0  0  0
 27 28  2  0  0  0  0
 28 29  1  0  0  0  0
 29 30  2  0  0  0  0
M  END
>  <CHROM.1>
-50.69762517,-138.65511230,81.51620042,-76.53017417,-72.43043544,-94.34867697
-84.93818467,-148.86330823,-55.61126683,9.24824779,-122.08826612,-9.07455774
-7.33159021,7.99314160,-0.25113126,-0.96757563,2.19708975

>  <Name>
1uts_lig

>  <RI>
0

>  <Rbt.Current_Directory>
/home/itssahil/PROJECTS/Mol_Feturizer/New_Systems/rnas/1uts

>  <Rbt.Executable>
rbdock ($Id: //depot/dev/client3/rdock/2013.1/src/exe/rbdock.cxx#4 $)

>  <Rbt.Library>
libRbt.so (2013.1, Build901 2013/11/27)

>  <Rbt.Parameter_File>
/export/apps/rDock/src/rDock_2013.1_src/data/scripts/dock_solv.prm

>  <Rbt.Receptor>
prm/blind_docking_100.prm

>  <SCORE>
-25.3857

>  <SCORE.INTER>
-32.7272

>  <SCORE.INTER.CONST>
1

>  <SCORE.INTER.POLAR>
-1.44269

>  <SCORE.INTER.ROT>
10

>  <SCORE.INTER.SOLV>
8.23702

>  <SCORE.INTER.VDW>
-30.0215

>  <SCORE.INTER.norm>
-1.09091

>  <SCORE.INTRA>
6.74995

>  <SCORE.INTRA.DIHEDRAL>
2.84228

>  <SCORE.INTRA.DIHEDRAL.0>
18.0451

>  <SCORE.INTRA.POLAR>
0.196815

>  <SCORE.INTRA.POLAR.0>
-0.196815

>  <SCORE.INTRA.REPUL>
0

>  <SCORE.INTRA.REPUL.0>
0

>  <SCORE.INTRA.SOLV>
0.0821664

>  <SCORE.INTRA.SOLV.lig_0>
-14.7906

>  <SCORE.INTRA.VDW>
4.61856

>  <SCORE.INTRA.VDW.0>
-0.411701

>  <SCORE.INTRA.norm>
0.224998

>  <SCORE.RESTR>
0.591586

>  <SCORE.RESTR.CAVITY>
0.591586

>  <SCORE.RESTR.norm>
0.0197195

>  <SCORE.SYSTEM>
0

>  <SCORE.SYSTEM.CONST>
0

>  <SCORE.SYSTEM.DIHEDRAL>
0

>  <SCORE.SYSTEM.SOLV>
0

>  <SCORE.SYSTEM.norm>
0

>  <SCORE.heavy>
30

>  <SCORE.norm>
-0.846189

>  <RMSD>
18.148

$$$$
1uts_lig
 OpenBabel11021811413D
libRbt.so/2013.1/901 2013/11/27
 30 33  0  0  0  0  0  0  0  0999 V2000
  -10.8222   -8.9731   13.7456 N   0  0  0  0  0  0  0  0  0  0  0  0
   -9.3197   -7.4761   12.5051 C   0  0  0  0  0  0  0  0  0  0  0  0
  -11.0478   -7.1282    7.6766 C   0  0  0  0  0  0  0  0  0  0  0  0
   -8.5049   -7.4559   11.2086 C   0  0  0  0  0  0  0  0  0  0  0  0
   -9.3767   -7.1787   10.1027 O   0  0  0  0  0  0  0  0  0  0  0  0
  -10.4362   -8.5156   12.3916 C   0  0  0  0  0  0  0  0  0  0  0  0
  -11.0643   -6.0123    6.7036 N   0  0  0  0  0  0  0  0  0  0  0  0
  -11.2267   -4.7218    7.4242 C   0  0  0  0  0  0  0  0  0  0  0  0
   -9.9921   -4.4531    8.2897 C   0  0  0  0  0  0  0  0  0  0  0  0
  -10.3012   -3.3901    9.2722 N   0  0  0  0  0  0  0  0  0  0  0  0
  -10.0368   -2.0581    8.6559 C   0  0  0  0  0  0  0  0  0  0  0  0
   -9.4572   -3.5783   10.4859 C   0  0  0  0  0  0  0  0  0  0  0  0
  -10.3532   -0.9514    9.6749 C   0  0  0  0  0  0  0  0  0  0  0  0
   -9.7704   -2.4685   11.5055 C   0  0  0  0  0  0  0  0  0  0  0  0
   -9.5084   -1.1384   10.8886 N   0  0  0  0  0  0  0  0  0  0  0  0
   -7.0976   -9.0275    7.7321 C   0  0  0  0  0  0  0  0  0  0  0  0
   -5.8584  -11.7696    2.0668 N   0  0  0  0  0  0  0  0  0  0  0  0
   -7.8770   -9.0406    6.5507 C   0  0  0  0  0  0  0  0  0  0  0  0
   -9.1563   -8.4237    6.5397 C   0  0  0  0  0  0  0  0  0  0  0  0
   -9.6555   -7.7902    7.7108 C   0  0  0  0  0  0  0  0  0  0  0  0
   -8.8750   -7.7924    8.9057 C   0  0  0  0  0  0  0  0  0  0  0  0
   -7.5937   -8.4088    8.9099 C   0  0  0  0  0  0  0  0  0  0  0  0
   -5.4261  -12.9300    2.7482 C   0  0  0  0  0  0  0  0  0  0  0  0
   -5.6770  -12.8244    4.1351 C   0  0  0  0  0  0  0  0  0  0  0  0
   -6.7704  -10.9495    5.4966 C   0  0  0  0  0  0  0  0  0  0  0  0
   -7.3788   -9.6684    5.4004 C   0  0  0  0  0  0  0  0  0  0  0  0
   -7.4872   -9.0284    4.1352 C   0  0  0  0  0  0  0  0  0  0  0  0
   -6.9901   -9.6699    2.9686 C   0  0  0  0  0  0  0  0  0  0  0  0
   -6.3911  -10.9648    3.0666 C   0  0  0  0  0  0  0  0  0  0  0  0
   -6.2824  -11.5993    4.3176 C   0  0  0  0  0  0  0  0  0  0  0  0
  1  6  1  0  0  0  0
  2  4  1  0  0  0  0
  3  7  1  0  0  0  0
  4  5  1  0  0  0  0
  6  2  1  0  0  0  0
  7  8  1  0  0  0  0
  8  9  1  0  0  0  0
  9 10  1  0  0  0  0
 10 11  1  0  0  0  0
 10 12  1  0  0  0  0
 11 13  1  0  0  0  0
 13 15  1  0  0  0  0
 14 12  1  0  0  0  0
 15 14  1  0  0  0  0
 16 18  2  0  0  0  0
 16 22  1  0  0  0  0
 17 23  1  0  0  0  0
 17 29  1  0  0  0  0
 18 19  1  0  0  0  0
 18 26  1  0  0  0  0
 19 20  2  0  0  0  0
 20  3  1  0  0  0  0
 20 21  1  0  0  0  0
 21  5  1  0  0  0  0
 21 22  2  0  0  0  0
 23 24  2  0  0  0  0
 24 30  1  0  0  0  0
 25 26  2  0  0  0  0
 25 30  1  0  0  0  0
 26 27  1  0  0  0  0
 27 28  2  0  0  0  0
 28 29  1  0  0  0  0
 29 30  2  0  0  0  0
M  END
>  <CHROM.1>
86.03269127,57.30756662,-112.88081530,-150.63477704,155.05640838,65.88507642
-164.51846878,-87.18076961,45.22649259,-62.90763760,172.45303843,-8.74975810
-7.37336953,7.85916144,3.13042146,1.21806509,-0.81461409

>  <Name>
1uts_lig

>  <RI>
0

>  <Rbt.Current_Directory>
/home/itssahil/PROJECTS/Mol_Feturizer/New_Systems/rnas/1uts

>  <Rbt.Executable>
rbdock ($Id: //depot/dev/client3/rdock/2013.1/src/exe/rbdock.cxx#4 $)

>  <Rbt.Library>
libRbt.so (2013.1, Build901 2013/11/27)

>  <Rbt.Parameter_File>
/export/apps/rDock/src/rDock_2013.1_src/data/scripts/dock_solv.prm

>  <Rbt.Receptor>
prm/blind_docking_40.prm

>  <SCORE>
-11.5179

>  <SCORE.INTER>
-22.435

>  <SCORE.INTER.CONST>
1

>  <SCORE.INTER.POLAR>
-1.14891

>  <SCORE.INTER.ROT>
10

>  <SCORE.INTER.SOLV>
8.25295

>  <SCORE.INTER.VDW>
-24.1446

>  <SCORE.INTER.norm>
-0.747833

>  <SCORE.INTRA>
4.0879

>  <SCORE.INTRA.DIHEDRAL>
-1.85172

>  <SCORE.INTRA.DIHEDRAL.0>
18.0451

>  <SCORE.INTRA.POLAR>
0.196815

>  <SCORE.INTRA.POLAR.0>
-0.196815

>  <SCORE.INTRA.REPUL>
0

>  <SCORE.INTRA.REPUL.0>
0

>  <SCORE.INTRA.SOLV>
-0.375405

>  <SCORE.INTRA.SOLV.lig_0>
-14.7906

>  <SCORE.INTRA.VDW>
4.5323

>  <SCORE.INTRA.VDW.0>
-0.411701

>  <SCORE.INTRA.norm>
0.136263

>  <SCORE.RESTR>
6.82922

>  <SCORE.RESTR.CAVITY>
6.82922

>  <SCORE.RESTR.norm>
0.227641

>  <SCORE.SYSTEM>
0

>  <SCORE.SYSTEM.CONST>
0

>  <SCORE.SYSTEM.DIHEDRAL>
0

>  <SCORE.SYSTEM.SOLV>
0

>  <SCORE.SYSTEM.norm>
0

>  <SCORE.heavy>
30

>  <SCORE.norm>
-0.383929

>  <RMSD>
18.155

$$$$
1uts_lig
 OpenBabel11021811413D
libRbt.so/2013.1/901 2013/11/27
 30 33  0  0  0  0  0  0  0  0999 V2000
   -9.7710   -1.5232   10.6361 N   0  0  0  0  0  0  0  0  0  0  0  0
  -11.4507   -1.8757    8.8778 C   0  0  0  0  0  0  0  0  0  0  0  0
  -13.0522   -6.4342    6.9439 C   0  0  0  0  0  0  0  0  0  0  0  0
  -10.9699   -3.2963    8.5680 C   0  0  0  0  0  0  0  0  0  0  0  0
  -11.7614   -3.8455    7.5042 O   0  0  0  0  0  0  0  0  0  0  0  0
  -10.2655   -1.0226    9.3337 C   0  0  0  0  0  0  0  0  0  0  0  0
  -13.0529   -7.4482    8.0226 N   0  0  0  0  0  0  0  0  0  0  0  0
  -12.7903   -6.7894    9.3295 C   0  0  0  0  0  0  0  0  0  0  0  0
  -11.3462   -6.2814    9.3724 C   0  0  0  0  0  0  0  0  0  0  0  0
  -10.4316   -7.4175    9.6249 N   0  0  0  0  0  0  0  0  0  0  0  0
   -9.3060   -6.9607   10.4897 C   0  0  0  0  0  0  0  0  0  0  0  0
   -9.9136   -7.9329    8.3260 C   0  0  0  0  0  0  0  0  0  0  0  0
   -8.3517   -8.1373   10.7509 C   0  0  0  0  0  0  0  0  0  0  0  0
   -8.9550   -9.1088    8.5866 C   0  0  0  0  0  0  0  0  0  0  0  0
   -7.8323   -8.6523    9.4523 N   0  0  0  0  0  0  0  0  0  0  0  0
   -8.9410   -5.5734    5.6901 C   0  0  0  0  0  0  0  0  0  0  0  0
   -6.6790  -10.9096    2.7763 N   0  0  0  0  0  0  0  0  0  0  0  0
   -9.5185   -6.8365    5.4172 C   0  0  0  0  0  0  0  0  0  0  0  0
  -10.8510   -7.1090    5.8266 C   0  0  0  0  0  0  0  0  0  0  0  0
  -11.6079   -6.1160    6.5071 C   0  0  0  0  0  0  0  0  0  0  0  0
  -11.0180   -4.8488    6.7957 C   0  0  0  0  0  0  0  0  0  0  0  0
   -9.6848   -4.5806    6.3807 C   0  0  0  0  0  0  0  0  0  0  0  0
   -7.4748  -11.9915    3.2167 C   0  0  0  0  0  0  0  0  0  0  0  0
   -8.5093  -11.5435    4.0693 C   0  0  0  0  0  0  0  0  0  0  0  0
   -9.1238   -9.1826    4.8518 C   0  0  0  0  0  0  0  0  0  0  0  0
   -8.7656   -7.8110    4.7471 C   0  0  0  0  0  0  0  0  0  0  0  0
   -7.6471   -7.4289    3.9564 C   0  0  0  0  0  0  0  0  0  0  0  0
   -6.8903   -8.4168    3.2702 C   0  0  0  0  0  0  0  0  0  0  0  0
   -7.2616   -9.7945    3.3664 C   0  0  0  0  0  0  0  0  0  0  0  0
   -8.3674  -10.1745    4.1487 C   0  0  0  0  0  0  0  0  0  0  0  0
  1  6  1  0  0  0  0
  2  4  1  0  0  0  0
  3  7  1  0  0  0  0
  4  5  1  0  0  0  0
  6  2  1  0  0  0  0
  7  8  1  0  0  0  0
  8  9  1  0  0  0  0
  9 10  1  0  0  0  0
 10 11  1  0  0  0  0
 10 12  1  0  0  0  0
 11 13  1  0  0  0  0
 13 15  1  0  0  0  0
 14 12  1  0  0  0  0
 15 14  1  0  0  0  0
 16 18  2  0  0  0  0
 16 22  1  0  0  0  0
 17 23  1  0  0  0  0
 17 29  1  0  0  0  0
 18 19  1  0  0  0  0
 18 26  1  0  0  0  0
 19 20  2  0  0  0  0
 20  3  1  0  0  0  0
 20 21  1  0  0  0  0
 21  5  1  0  0  0  0
 21 22  2  0  0  0  0
 23 24  2  0  0  0  0
 24 30  1  0  0  0  0
 25 26  2  0  0  0  0
 25 30  1  0  0  0  0
 26 27  1  0  0  0  0
 27 28  2  0  0  0  0
 28 29  1  0  0  0  0
 29 30  2  0  0  0  0
M  END
>  <CHROM.1>
-48.36736330,-147.59418543,81.84813169,154.04168084,-66.68630341,-68.74739990
-77.40054981,-143.96417201,158.94651598,68.46633974,132.04950910,-9.75726086
-6.89698884,7.03491878,-3.08091603,-1.20035476,2.32096526

>  <Name>
1uts_lig

>  <RI>
0

>  <Rbt.Current_Directory>
/home/itssahil/PROJECTS/Mol_Feturizer/New_Systems/rnas/1uts

>  <Rbt.Executable>
rbdock ($Id: //depot/dev/client3/rdock/2013.1/src/exe/rbdock.cxx#4 $)

>  <Rbt.Library>
libRbt.so (2013.1, Build901 2013/11/27)

>  <Rbt.Parameter_File>
/export/apps/rDock/src/rDock_2013.1_src/data/scripts/dock_solv.prm

>  <Rbt.Receptor>
prm/blind_docking_20.prm

>  <SCORE>
-16.7566

>  <SCORE.INTER>
-21.7155

>  <SCORE.INTER.CONST>
1

>  <SCORE.INTER.POLAR>
-2.01693

>  <SCORE.INTER.ROT>
10

>  <SCORE.INTER.SOLV>
7.59534

>  <SCORE.INTER.VDW>
-20.5524

>  <SCORE.INTER.norm>
-0.72385

>  <SCORE.INTRA>
3.42048

>  <SCORE.INTRA.DIHEDRAL>
-3.0048

>  <SCORE.INTRA.DIHEDRAL.0>
18.0451

>  <SCORE.INTRA.POLAR>
0.196815

>  <SCORE.INTRA.POLAR.0>
-0.196815

>  <SCORE.INTRA.REPUL>
0

>  <SCORE.INTRA.REPUL.0>
0

>  <SCORE.INTRA.SOLV>
0.118019

>  <SCORE.INTRA.SOLV.lig_0>
-14.7906

>  <SCORE.INTRA.VDW>
4.1947

>  <SCORE.INTRA.VDW.0>
-0.411701

>  <SCORE.INTRA.norm>
0.114016

>  <SCORE.RESTR>
1.53843

>  <SCORE.RESTR.CAVITY>
1.53843

>  <SCORE.RESTR.norm>
0.0512811

>  <SCORE.SYSTEM>
0

>  <SCORE.SYSTEM.CONST>
0

>  <SCORE.SYSTEM.DIHEDRAL>
0

>  <SCORE.SYSTEM.SOLV>
0

>  <SCORE.SYSTEM.norm>
0

>  <SCORE.heavy>
30

>  <SCORE.norm>
-0.558553

>  <RMSD>
18.169

$$$$
1uts_lig
 OpenBabel11021811413D
libRbt.so/2013.1/901 2013/11/27
 30 33  0  0  0  0  0  0  0  0999 V2000
  -10.4566   -8.8452   14.8942 N   0  0  0  0  0  0  0  0  0  0  0  0
  -10.1346   -7.9191   12.6412 C   0  0  0  0  0  0  0  0  0  0  0  0
  -10.8835   -7.2761    8.3134 C   0  0  0  0  0  0  0  0  0  0  0  0
   -9.8559   -8.4222   11.2219 C   0  0  0  0  0  0  0  0  0  0  0  0
   -8.9823   -7.5007   10.5531 O   0  0  0  0  0  0  0  0  0  0  0  0
  -10.7805   -9.0366   13.4624 C   0  0  0  0  0  0  0  0  0  0  0  0
  -10.7747   -6.0024    9.0602 N   0  0  0  0  0  0  0  0  0  0  0  0
  -12.0958   -5.6499    9.6444 C   0  0  0  0  0  0  0  0  0  0  0  0
  -11.8947   -4.8928   10.9604 C   0  0  0  0  0  0  0  0  0  0  0  0
  -11.0792   -3.6826   10.7129 N   0  0  0  0  0  0  0  0  0  0  0  0
  -10.5968   -3.1392   12.0151 C   0  0  0  0  0  0  0  0  0  0  0  0
  -11.9050   -2.6677    9.9996 C   0  0  0  0  0  0  0  0  0  0  0  0
   -9.7524   -1.8797   11.7622 C   0  0  0  0  0  0  0  0  0  0  0  0
  -11.0616   -1.4045    9.7492 C   0  0  0  0  0  0  0  0  0  0  0  0
  -10.5782   -0.8637   11.0500 N   0  0  0  0  0  0  0  0  0  0  0  0
   -6.9476   -9.1458    7.8354 C   0  0  0  0  0  0  0  0  0  0  0  0
   -6.2264  -11.4206    1.8889 N   0  0  0  0  0  0  0  0  0  0  0  0
   -7.8392   -9.0738    6.7385 C   0  0  0  0  0  0  0  0  0  0  0  0
   -9.1132   -8.4671    6.9004 C   0  0  0  0  0  0  0  0  0  0  0  0
   -9.4948   -7.9289    8.1600 C   0  0  0  0  0  0  0  0  0  0  0  0
   -8.6007   -8.0171    9.2690 C   0  0  0  0  0  0  0  0  0  0  0  0
   -7.3254   -8.6228    9.1003 C   0  0  0  0  0  0  0  0  0  0  0  0
   -5.4922  -12.4910    2.4482 C   0  0  0  0  0  0  0  0  0  0  0  0
   -5.5058  -12.4297    3.8601 C   0  0  0  0  0  0  0  0  0  0  0  0
   -6.6359  -10.7675    5.4488 C   0  0  0  0  0  0  0  0  0  0  0  0
   -7.4565   -9.6080    5.5000 C   0  0  0  0  0  0  0  0  0  0  0  0
   -7.8940   -8.9953    4.2936 C   0  0  0  0  0  0  0  0  0  0  0  0
   -7.5131   -9.5432    3.0389 C   0  0  0  0  0  0  0  0  0  0  0  0
   -6.6989  -10.7178    2.9907 C   0  0  0  0  0  0  0  0  0  0  0  0
   -6.2646  -11.3250    4.1832 C   0  0  0  0  0  0  0  0  0  0  0  0
  1  6  1  0  0  0  0
  2  4  1  0  0  0  0
  3  7  1  0  0  0  0
  4  5  1  0  0  0  0
  6  2  1  0  0  0  0
  7  8  1  0  0  0  0
  8  9  1  0  0  0  0
  9 10  1  0  0  0  0
 10 11  1  0  0  0  0
 10 12  1  0  0  0  0
 11 13  1  0  0  0  0
 13 15  1  0  0  0  0
 14 12  1  0  0  0  0
 15 14  1  0  0  0  0
 16 18  2  0  0  0  0
 16 22  1  0  0  0  0
 17 23  1  0  0  0  0
 17 29  1  0  0  0  0
 18 19  1  0  0  0  0
 18 26  1  0  0  0  0
 19 20  2  0  0  0  0
 20  3  1  0  0  0  0
 20 21  1  0  0  0  0
 21  5  1  0  0  0  0
 21 22  2  0  0  0  0
 23 24  2  0  0  0  0
 24 30  1  0  0  0  0
 25 26  2  0  0  0  0
 25 30  1  0  0  0  0
 26 27  1  0  0  0  0
 27 28  2  0  0  0  0
 28 29  1  0  0  0  0
 29 30  2  0  0  0  0
M  END
>  <CHROM.1>
-156.55333337,-166.71473911,-158.68360004,174.29837568,152.42496782,148.37001506
57.72045611,-165.85382188,34.06704118,-135.42911342,78.91286039,-9.09125130
-7.45214342,8.44287043,-3.05042680,1.16824255,-0.82104820

>  <Name>
1uts_lig

>  <RI>
0

>  <Rbt.Current_Directory>
/home/itssahil/PROJECTS/Mol_Feturizer/New_Systems/rnas/1uts

>  <Rbt.Executable>
rbdock ($Id: //depot/dev/client3/rdock/2013.1/src/exe/rbdock.cxx#4 $)

>  <Rbt.Library>
libRbt.so (2013.1, Build901 2013/11/27)

>  <Rbt.Parameter_File>
/export/apps/rDock/src/rDock_2013.1_src/data/scripts/dock_solv.prm

>  <Rbt.Receptor>
prm/blind_docking_80.prm

>  <SCORE>
-28.4387

>  <SCORE.INTER>
-25.563

>  <SCORE.INTER.CONST>
1

>  <SCORE.INTER.POLAR>
-0.947033

>  <SCORE.INTER.ROT>
10

>  <SCORE.INTER.SOLV>
8.23824

>  <SCORE.INTER.VDW>
-26.898

>  <SCORE.INTER.norm>
-0.852101

>  <SCORE.INTRA>
-3.07234

>  <SCORE.INTRA.DIHEDRAL>
-3.37982

>  <SCORE.INTRA.DIHEDRAL.0>
18.0451

>  <SCORE.INTRA.POLAR>
-0.343734

>  <SCORE.INTRA.POLAR.0>
-0.196815

>  <SCORE.INTRA.REPUL>
0

>  <SCORE.INTRA.REPUL.0>
0

>  <SCORE.INTRA.SOLV>
0.0261897

>  <SCORE.INTRA.SOLV.lig_0>
-14.7906

>  <SCORE.INTRA.VDW>
-0.226827

>  <SCORE.INTRA.VDW.0>
-0.411701

>  <SCORE.INTRA.norm>
-0.102411

>  <SCORE.RESTR>
0.196696

>  <SCORE.RESTR.CAVITY>
0.196696

>  <SCORE.RESTR.norm>
0.00655654

>  <SCORE.SYSTEM>
0

>  <SCORE.SYSTEM.CONST>
0

>  <SCORE.SYSTEM.DIHEDRAL>
0

>  <SCORE.SYSTEM.SOLV>
0

>  <SCORE.SYSTEM.norm>
0

>  <SCORE.heavy>
30

>  <SCORE.norm>
-0.947956

>  <RMSD>
18.182

$$$$
1uts_lig
 OpenBabel11021811413D
libRbt.so/2013.1/901 2013/11/27
 30 33  0  0  0  0  0  0  0  0999 V2000
  -10.7001   -9.4417   14.6876 N   0  0  0  0  0  0  0  0  0  0  0  0
  -10.0207   -7.4848   13.3661 C   0  0  0  0  0  0  0  0  0  0  0  0
  -10.7363   -6.5353    9.5217 C   0  0  0  0  0  0  0  0  0  0  0  0
   -9.8129   -7.9789   11.9316 C   0  0  0  0  0  0  0  0  0  0  0  0
   -8.6234   -7.3851   11.3910 O   0  0  0  0  0  0  0  0  0  0  0  0
  -11.1978   -8.2298   13.9983 C   0  0  0  0  0  0  0  0  0  0  0  0
  -11.6473   -6.3008    8.3784 N   0  0  0  0  0  0  0  0  0  0  0  0
  -13.0065   -5.9679    8.8810 C   0  0  0  0  0  0  0  0  0  0  0  0
  -12.9292   -4.7642    9.8246 C   0  0  0  0  0  0  0  0  0  0  0  0
  -12.2666   -3.6366    9.1315 N   0  0  0  0  0  0  0  0  0  0  0  0
  -10.9175   -3.4165    9.7276 C   0  0  0  0  0  0  0  0  0  0  0  0
  -13.1029   -2.4110    9.2707 C   0  0  0  0  0  0  0  0  0  0  0  0
  -10.2278   -2.2434    9.0126 C   0  0  0  0  0  0  0  0  0  0  0  0
  -12.4114   -1.2346    8.5582 C   0  0  0  0  0  0  0  0  0  0  0  0
  -11.0631   -1.0170    9.1525 N   0  0  0  0  0  0  0  0  0  0  0  0
   -7.2176   -8.7784    8.1795 C   0  0  0  0  0  0  0  0  0  0  0  0
   -7.6916  -10.0670    1.9057 N   0  0  0  0  0  0  0  0  0  0  0  0
   -8.2193   -8.4043    7.2522 C   0  0  0  0  0  0  0  0  0  0  0  0
   -9.3572   -7.6779    7.6939 C   0  0  0  0  0  0  0  0  0  0  0  0
   -9.4918   -7.3226    9.0641 C   0  0  0  0  0  0  0  0  0  0  0  0
   -8.4885   -7.7149   10.0003 C   0  0  0  0  0  0  0  0  0  0  0  0
   -7.3501   -8.4392    9.5519 C   0  0  0  0  0  0  0  0  0  0  0  0
   -7.5566  -11.4498    2.1651 C   0  0  0  0  0  0  0  0  0  0  0  0
   -7.5936  -11.7093    3.5540 C   0  0  0  0  0  0  0  0  0  0  0  0
   -7.8869  -10.1208    5.5426 C   0  0  0  0  0  0  0  0  0  0  0  0
   -8.0803   -8.7595    5.9031 C   0  0  0  0  0  0  0  0  0  0  0  0
   -8.1395   -7.7602    4.8930 C   0  0  0  0  0  0  0  0  0  0  0  0
   -8.0077   -8.1228    3.5252 C   0  0  0  0  0  0  0  0  0  0  0  0
   -7.8271   -9.4948    3.1649 C   0  0  0  0  0  0  0  0  0  0  0  0
   -7.7677  -10.4847    4.1628 C   0  0  0  0  0  0  0  0  0  0  0  0
  1  6  1  0  0  0  0
  2  4  1  0  0  0  0
  3  7  1  0  0  0  0
  4  5  1  0  0  0  0
  6  2  1  0  0  0  0
  7  8  1  0  0  0  0
  8  9  1  0  0  0  0
  9 10  1  0  0  0  0
 10 11  1  0  0  0  0
 10 12  1  0  0  0  0
 11 13  1  0  0  0  0
 13 15  1  0  0  0  0
 14 12  1  0  0  0  0
 15 14  1  0  0  0  0
 16 18  2  0  0  0  0
 16 22  1  0  0  0  0
 17 23  1  0  0  0  0
 17 29  1  0  0  0  0
 18 19  1  0  0  0  0
 18 26  1  0  0  0  0
 19 20  2  0  0  0  0
 20  3  1  0  0  0  0
 20 21  1  0  0  0  0
 21  5  1  0  0  0  0
 21 22  2  0  0  0  0
 23 24  2  0  0  0  0
 24 30  1  0  0  0  0
 25 26  2  0  0  0  0
 25 30  1  0  0  0  0
 26 27  1  0  0  0  0
 27 28  2  0  0  0  0
 28 29  1  0  0  0  0
 29 30  2  0  0  0  0
M  END
>  <CHROM.1>
46.33427548,-173.85195033,161.09927036,-173.57394449,90.97966683,55.93352657
54.96956508,-109.56504859,55.18956944,1.40034368,60.52749972,-9.73644704
-7.04003309,8.25888006,-2.63186470,1.10490839,-1.21712922

>  <Name>
1uts_lig

>  <RI>
0

>  <Rbt.Current_Directory>
/home/itssahil/PROJECTS/Mol_Feturizer/New_Systems/rnas/1uts

>  <Rbt.Executable>
rbdock ($Id: //depot/dev/client3/rdock/2013.1/src/exe/rbdock.cxx#4 $)

>  <Rbt.Library>
libRbt.so (2013.1, Build901 2013/11/27)

>  <Rbt.Parameter_File>
/export/apps/rDock/src/rDock_2013.1_src/data/scripts/dock_solv.prm

>  <Rbt.Receptor>
prm/blind_docking_80.prm

>  <SCORE>
-21.7367

>  <SCORE.INTER>
-25.9171

>  <SCORE.INTER.CONST>
1

>  <SCORE.INTER.POLAR>
-1.96396

>  <SCORE.INTER.ROT>
10

>  <SCORE.INTER.SOLV>
8.72655

>  <SCORE.INTER.VDW>
-23.907

>  <SCORE.INTER.norm>
-0.863902

>  <SCORE.INTRA>
3.23597

>  <SCORE.INTRA.DIHEDRAL>
-2.44621

>  <SCORE.INTRA.DIHEDRAL.0>
18.0451

>  <SCORE.INTRA.POLAR>
0.196815

>  <SCORE.INTRA.POLAR.0>
-0.196815

>  <SCORE.INTRA.REPUL>
0

>  <SCORE.INTRA.REPUL.0>
0

>  <SCORE.INTRA.SOLV>
-0.225492

>  <SCORE.INTRA.SOLV.lig_0>
-14.7906

>  <SCORE.INTRA.VDW>
3.90265

>  <SCORE.INTRA.VDW.0>
-0.411701

>  <SCORE.INTRA.norm>
0.107866

>  <SCORE.RESTR>
0.944374

>  <SCORE.RESTR.CAVITY>
0.944374

>  <SCORE.RESTR.norm>
0.0314791

>  <SCORE.SYSTEM>
0

>  <SCORE.SYSTEM.CONST>
0

>  <SCORE.SYSTEM.DIHEDRAL>
0

>  <SCORE.SYSTEM.SOLV>
0

>  <SCORE.SYSTEM.norm>
0

>  <SCORE.heavy>
30

>  <SCORE.norm>
-0.724557

>  <RMSD>
18.215

$$$$
1uts_lig
 OpenBabel11021811413D
libRbt.so/2013.1/901 2013/11/27
 30 33  0  0  0  0  0  0  0  0999 V2000
   -4.2362  -11.9479    4.4649 N   0  0  0  0  0  0  0  0  0  0  0  0
   -6.3529  -10.8437    5.0461 C   0  0  0  0  0  0  0  0  0  0  0  0
   -9.7352   -8.2465    5.0510 C   0  0  0  0  0  0  0  0  0  0  0  0
   -5.7444   -9.4391    4.9994 C   0  0  0  0  0  0  0  0  0  0  0  0
   -6.7973   -8.4639    4.9962 O   0  0  0  0  0  0  0  0  0  0  0  0
   -5.6386  -11.7444    4.0368 C   0  0  0  0  0  0  0  0  0  0  0  0
  -10.8495   -7.2898    5.2378 N   0  0  0  0  0  0  0  0  0  0  0  0
  -10.3566   -5.9013    5.0375 C   0  0  0  0  0  0  0  0  0  0  0  0
  -11.2673   -4.9167    5.7767 C   0  0  0  0  0  0  0  0  0  0  0  0
  -10.9882   -4.9825    7.2288 N   0  0  0  0  0  0  0  0  0  0  0  0
  -12.0518   -4.2440    7.9686 C   0  0  0  0  0  0  0  0  0  0  0  0
   -9.6518   -4.3825    7.5028 C   0  0  0  0  0  0  0  0  0  0  0  0
  -11.7630   -4.3069    9.4772 C   0  0  0  0  0  0  0  0  0  0  0  0
   -9.3632   -4.4416    9.0137 C   0  0  0  0  0  0  0  0  0  0  0  0
  -10.4271   -3.7058    9.7520 N   0  0  0  0  0  0  0  0  0  0  0  0
   -7.3601   -8.5026    8.7263 C   0  0  0  0  0  0  0  0  0  0  0  0
  -11.3276   -7.9687   13.7870 N   0  0  0  0  0  0  0  0  0  0  0  0
   -8.7685   -8.3810    8.7962 C   0  0  0  0  0  0  0  0  0  0  0  0
   -9.5320   -8.2980    7.6014 C   0  0  0  0  0  0  0  0  0  0  0  0
   -8.8866   -8.3398    6.3351 C   0  0  0  0  0  0  0  0  0  0  0  0
   -7.4648   -8.4460    6.2671 C   0  0  0  0  0  0  0  0  0  0  0  0
   -6.7059   -8.5318    7.4664 C   0  0  0  0  0  0  0  0  0  0  0  0
  -11.3313   -6.5574   13.8657 C   0  0  0  0  0  0  0  0  0  0  0  0
  -10.7064   -5.9867   12.7336 C   0  0  0  0  0  0  0  0  0  0  0  0
   -9.6619   -7.0882   10.6697 C   0  0  0  0  0  0  0  0  0  0  0  0
   -9.3977   -8.3390   10.0483 C   0  0  0  0  0  0  0  0  0  0  0  0
   -9.7790   -9.5465   10.6955 C   0  0  0  0  0  0  0  0  0  0  0  0
  -10.4251   -9.5022   11.9605 C   0  0  0  0  0  0  0  0  0  0  0  0
  -10.7019   -8.2418   12.5766 C   0  0  0  0  0  0  0  0  0  0  0  0
  -10.3249   -7.0461   11.9381 C   0  0  0  0  0  0  0  0  0  0  0  0
  1  6  1  0  0  0  0
  2  4  1  0  0  0  0
  3  7  1  0  0  0  0
  4  5  1  0  0  0  0
  6  2  1  0  0  0  0
  7  8  1  0  0  0  0
  8  9  1  0  0  0  0
  9 10  1  0  0  0  0
 10 11  1  0  0  0  0
 10 12  1  0  0  0  0
 11 13  1  0  0  0  0
 13 15  1  0  0  0  0
 14 12  1  0  0  0  0
 15 14  1  0  0  0  0
 16 18  2  0  0  0  0
 16 22  1  0  0  0  0
 17 23  1  0  0  0  0
 17 29  1  0  0  0  0
 18 19  1  0  0  0  0
 18 26  1  0  0  0  0
 19 20  2  0  0  0  0
 20  3  1  0  0  0  0
 20 21  1  0  0  0  0
 21  5  1  0  0  0  0
 21 22  2  0  0  0  0
 23 24  2  0  0  0  0
 24 30  1  0  0  0  0
 25 26  2  0  0  0  0
 25 30  1  0  0  0  0
 26 27  1  0  0  0  0
 27 28  2  0  0  0  0
 28 29  1  0  0  0  0
 29 30  2  0  0  0  0
M  END
>  <CHROM.1>
-74.60819080,135.14204376,81.46285564,69.09615718,66.62325876,-156.09577616
75.40080107,-168.45335154,92.68913186,38.02944796,-138.46304079,-9.22444965
-7.50865663,8.19377414,-0.54610627,-0.91886333,1.95040517

>  <Name>
1uts_lig

>  <RI>
0

>  <Rbt.Current_Directory>
/home/itssahil/PROJECTS/Mol_Feturizer/New_Systems/rnas/1uts

>  <Rbt.Executable>
rbdock ($Id: //depot/dev/client3/rdock/2013.1/src/exe/rbdock.cxx#4 $)

>  <Rbt.Library>
libRbt.so (2013.1, Build901 2013/11/27)

>  <Rbt.Parameter_File>
/export/apps/rDock/src/rDock_2013.1_src/data/scripts/dock_solv.prm

>  <Rbt.Receptor>
prm/blind_docking_100.prm

>  <SCORE>
-31.1916

>  <SCORE.INTER>
-33.1982

>  <SCORE.INTER.CONST>
1

>  <SCORE.INTER.POLAR>
-1.77334

>  <SCORE.INTER.ROT>
10

>  <SCORE.INTER.SOLV>
11.0334

>  <SCORE.INTER.VDW>
-30.1655

>  <SCORE.INTER.norm>
-1.10661

>  <SCORE.INTRA>
0.000366352

>  <SCORE.INTRA.DIHEDRAL>
-1.27402

>  <SCORE.INTRA.DIHEDRAL.0>
18.0451

>  <SCORE.INTRA.POLAR>
0.196815

>  <SCORE.INTRA.POLAR.0>
-0.196815

>  <SCORE.INTRA.REPUL>
0

>  <SCORE.INTRA.REPUL.0>
0

>  <SCORE.INTRA.SOLV>
-0.0045534

>  <SCORE.INTRA.SOLV.lig_0>
-14.7906

>  <SCORE.INTRA.VDW>
-0.029517

>  <SCORE.INTRA.VDW.0>
-0.411701

>  <SCORE.INTRA.norm>
1.22117e-05

>  <SCORE.RESTR>
2.00622

>  <SCORE.RESTR.CAVITY>
2.00622

>  <SCORE.RESTR.norm>
0.0668741

>  <SCORE.SYSTEM>
0

>  <SCORE.SYSTEM.CONST>
0

>  <SCORE.SYSTEM.DIHEDRAL>
0

>  <SCORE.SYSTEM.SOLV>
0

>  <SCORE.SYSTEM.norm>
0

>  <SCORE.heavy>
30

>  <SCORE.norm>
-1.03972

>  <RMSD>
18.216

$$$$
1uts_lig
 OpenBabel11021811413D
libRbt.so/2013.1/901 2013/11/27
 30 33  0  0  0  0  0  0  0  0999 V2000
   -4.2793  -11.7492    4.5757 N   0  0  0  0  0  0  0  0  0  0  0  0
   -5.3206   -9.5616    4.9848 C   0  0  0  0  0  0  0  0  0  0  0  0
  -10.5064   -8.5563    5.3232 C   0  0  0  0  0  0  0  0  0  0  0  0
   -6.3906   -8.6199    4.4250 C   0  0  0  0  0  0  0  0  0  0  0  0
   -7.6914   -9.1614    4.6979 O   0  0  0  0  0  0  0  0  0  0  0  0
   -5.5245  -10.9655    4.4122 C   0  0  0  0  0  0  0  0  0  0  0  0
  -10.8561   -7.1495    5.0220 N   0  0  0  0  0  0  0  0  0  0  0  0
  -11.5634   -6.5493    6.1840 C   0  0  0  0  0  0  0  0  0  0  0  0
  -11.1648   -5.0777    6.3292 C   0  0  0  0  0  0  0  0  0  0  0  0
  -11.1060   -4.7227    7.7650 N   0  0  0  0  0  0  0  0  0  0  0  0
  -12.1174   -3.6653    8.0526 C   0  0  0  0  0  0  0  0  0  0  0  0
   -9.7370   -4.2373    8.0983 C   0  0  0  0  0  0  0  0  0  0  0  0
  -12.0566   -3.2911    9.5424 C   0  0  0  0  0  0  0  0  0  0  0  0
   -9.6759   -3.8588    9.5891 C   0  0  0  0  0  0  0  0  0  0  0  0
  -10.6879   -2.8044    9.8760 N   0  0  0  0  0  0  0  0  0  0  0  0
   -7.4219   -8.7123    8.4339 C   0  0  0  0  0  0  0  0  0  0  0  0
  -10.1846   -7.5751   14.1511 N   0  0  0  0  0  0  0  0  0  0  0  0
   -8.7600   -8.4003    8.7736 C   0  0  0  0  0  0  0  0  0  0  0  0
   -9.7545   -8.3510    7.7607 C   0  0  0  0  0  0  0  0  0  0  0  0
   -9.4109   -8.6170    6.4068 C   0  0  0  0  0  0  0  0  0  0  0  0
   -8.0578   -8.9154    6.0641 C   0  0  0  0  0  0  0  0  0  0  0  0
   -7.0672   -8.9664    7.0827 C   0  0  0  0  0  0  0  0  0  0  0  0
  -11.0150   -8.7106   14.2883 C   0  0  0  0  0  0  0  0  0  0  0  0
  -11.0906   -9.4309   13.0745 C   0  0  0  0  0  0  0  0  0  0  0  0
   -9.9724   -9.0071   10.8086 C   0  0  0  0  0  0  0  0  0  0  0  0
   -9.0909   -8.1377   10.1105 C   0  0  0  0  0  0  0  0  0  0  0  0
   -8.5402   -7.0058   10.7721 C   0  0  0  0  0  0  0  0  0  0  0  0
   -8.8692   -6.7459   12.1300 C   0  0  0  0  0  0  0  0  0  0  0  0
   -9.7454   -7.6302   12.8338 C   0  0  0  0  0  0  0  0  0  0  0  0
  -10.2916   -8.7502   12.1807 C   0  0  0  0  0  0  0  0  0  0  0  0
  1  6  1  0  0  0  0
  2  4  1  0  0  0  0
  3  7  1  0  0  0  0
  4  5  1  0  0  0  0
  6  2  1  0  0  0  0
  7  8  1  0  0  0  0
  8  9  1  0  0  0  0
  9 10  1  0  0  0  0
 10 11  1  0  0  0  0
 10 12  1  0  0  0  0
 11 13  1  0  0  0  0
 13 15  1  0  0  0  0
 14 12  1  0  0  0  0
 15 14  1  0  0  0  0
 16 18  2  0  0  0  0
 16 22  1  0  0  0  0
 17 23  1  0  0  0  0
 17 29  1  0  0  0  0
 18 19  1  0  0  0  0
 18 26  1  0  0  0  0
 19 20  2  0  0  0  0
 20  3  1  0  0  0  0
 20 21  1  0  0  0  0
 21  5  1  0  0  0  0
 21 22  2  0  0  0  0
 23 24  2  0  0  0  0
 24 30  1  0  0  0  0
 25 26  2  0  0  0  0
 25 30  1  0  0  0  0
 26 27  1  0  0  0  0
 27 28  2  0  0  0  0
 28 29  1  0  0  0  0
 29 30  2  0  0  0  0
M  END
>  <CHROM.1>
-169.35708227,55.24496238,-69.25988218,78.29463493,161.41675330,144.16221354
-144.60611517,-117.65980221,-115.36199197,74.98331023,143.49840481,-9.24103724
-7.45953379,8.34766224,-0.64176124,-0.92862527,1.87756820

>  <Name>
1uts_lig

>  <RI>
0

>  <Rbt.Current_Directory>
/home/itssahil/PROJECTS/Mol_Feturizer/New_Systems/rnas/1uts

>  <Rbt.Executable>
rbdock ($Id: //depot/dev/client3/rdock/2013.1/src/exe/rbdock.cxx#4 $)

>  <Rbt.Library>
libRbt.so (2013.1, Build901 2013/11/27)

>  <Rbt.Parameter_File>
/export/apps/rDock/src/rDock_2013.1_src/data/scripts/dock_solv.prm

>  <Rbt.Receptor>
prm/blind_docking_100.prm

>  <SCORE>
-23.3409

>  <SCORE.INTER>
-29.8203

>  <SCORE.INTER.CONST>
1

>  <SCORE.INTER.POLAR>
-1.57591

>  <SCORE.INTER.ROT>
10

>  <SCORE.INTER.SOLV>
9.28764

>  <SCORE.INTER.VDW>
-27.9897

>  <SCORE.INTER.norm>
-0.994009

>  <SCORE.INTRA>
4.39623

>  <SCORE.INTRA.DIHEDRAL>
1.05649

>  <SCORE.INTRA.DIHEDRAL.0>
18.0451

>  <SCORE.INTRA.POLAR>
0.196815

>  <SCORE.INTRA.POLAR.0>
-0.196815

>  <SCORE.INTRA.REPUL>
0

>  <SCORE.INTRA.REPUL.0>
0

>  <SCORE.INTRA.SOLV>
-0.432156

>  <SCORE.INTRA.SOLV.lig_0>
-14.7906

>  <SCORE.INTRA.VDW>
3.41489

>  <SCORE.INTRA.VDW.0>
-0.411701

>  <SCORE.INTRA.norm>
0.146541

>  <SCORE.RESTR>
2.08316

>  <SCORE.RESTR.CAVITY>
2.08316

>  <SCORE.RESTR.norm>
0.0694388

>  <SCORE.SYSTEM>
0

>  <SCORE.SYSTEM.CONST>
0

>  <SCORE.SYSTEM.DIHEDRAL>
0

>  <SCORE.SYSTEM.SOLV>
0

>  <SCORE.SYSTEM.norm>
0

>  <SCORE.heavy>
30

>  <SCORE.norm>
-0.778029

>  <RMSD>
18.234

$$$$
1uts_lig
 OpenBabel11021811413D
libRbt.so/2013.1/901 2013/11/27
 30 33  0  0  0  0  0  0  0  0999 V2000
   -9.9681   -9.8117   15.6765 N   0  0  0  0  0  0  0  0  0  0  0  0
  -10.9741   -8.4701   13.8806 C   0  0  0  0  0  0  0  0  0  0  0  0
  -11.3655   -5.1752    9.8900 C   0  0  0  0  0  0  0  0  0  0  0  0
  -11.1042   -7.0427   13.3412 C   0  0  0  0  0  0  0  0  0  0  0  0
  -11.8275   -7.0662   12.1018 O   0  0  0  0  0  0  0  0  0  0  0  0
   -9.9112   -8.5066   14.9801 C   0  0  0  0  0  0  0  0  0  0  0  0
  -11.3170   -4.6289    8.5148 N   0  0  0  0  0  0  0  0  0  0  0  0
  -12.2228   -5.4115    7.6327 C   0  0  0  0  0  0  0  0  0  0  0  0
  -11.8651   -5.1558    6.1656 C   0  0  0  0  0  0  0  0  0  0  0  0
  -10.5105   -5.6846    5.8895 N   0  0  0  0  0  0  0  0  0  0  0  0
   -9.7517   -4.6931    5.0740 C   0  0  0  0  0  0  0  0  0  0  0  0
  -10.6245   -6.9793    5.1605 C   0  0  0  0  0  0  0  0  0  0  0  0
   -8.3453   -5.2406    4.7819 C   0  0  0  0  0  0  0  0  0  0  0  0
   -9.2166   -7.5267    4.8642 C   0  0  0  0  0  0  0  0  0  0  0  0
   -8.4586   -6.5349    4.0517 N   0  0  0  0  0  0  0  0  0  0  0  0
   -9.5007   -9.1413    9.9777 C   0  0  0  0  0  0  0  0  0  0  0  0
   -6.1419  -10.0477    4.5637 N   0  0  0  0  0  0  0  0  0  0  0  0
   -9.2673   -8.2692    8.8877 C   0  0  0  0  0  0  0  0  0  0  0  0
   -9.8751   -6.9856    8.8653 C   0  0  0  0  0  0  0  0  0  0  0  0
  -10.7148   -6.5725    9.9359 C   0  0  0  0  0  0  0  0  0  0  0  0
  -10.9619   -7.4598   11.0262 C   0  0  0  0  0  0  0  0  0  0  0  0
  -10.3483   -8.7423   11.0447 C   0  0  0  0  0  0  0  0  0  0  0  0
   -7.0772  -10.9682    4.0388 C   0  0  0  0  0  0  0  0  0  0  0  0
   -8.2503  -11.0012    4.8265 C   0  0  0  0  0  0  0  0  0  0  0  0
   -8.8898   -9.6798    6.9262 C   0  0  0  0  0  0  0  0  0  0  0  0
   -8.4394   -8.6840    7.8350 C   0  0  0  0  0  0  0  0  0  0  0  0
   -7.1511   -8.1047    7.6704 C   0  0  0  0  0  0  0  0  0  0  0  0
   -6.3166   -8.5194    6.5976 C   0  0  0  0  0  0  0  0  0  0  0  0
   -6.7781   -9.5114    5.6768 C   0  0  0  0  0  0  0  0  0  0  0  0
   -8.0521  -10.0861    5.8384 C   0  0  0  0  0  0  0  0  0  0  0  0
  1  6  1  0  0  0  0
  2  4  1  0  0  0  0
  3  7  1  0  0  0  0
  4  5  1  0  0  0  0
  6  2  1  0  0  0  0
  7  8  1  0  0  0  0
  8  9  1  0  0  0  0
  9 10  1  0  0  0  0
 10 11  1  0  0  0  0
 10 12  1  0  0  0  0
 11 13  1  0  0  0  0
 13 15  1  0  0  0  0
 14 12  1  0  0  0  0
 15 14  1  0  0  0  0
 16 18  2  0  0  0  0
 16 22  1  0  0  0  0
 17 23  1  0  0  0  0
 17 29  1  0  0  0  0
 18 19  1  0  0  0  0
 18 26  1  0  0  0  0
 19 20  2  0  0  0  0
 20  3  1  0  0  0  0
 20 21  1  0  0  0  0
 21  5  1  0  0  0  0
 21 22  2  0  0  0  0
 23 24  2  0  0  0  0
 24 30  1  0  0  0  0
 25 26  2  0  0  0  0
 25 30  1  0  0  0  0
 26 27  1  0  0  0  0
 27 28  2  0  0  0  0
 28 29  1  0  0  0  0
 29 30  2  0  0  0  0
M  END
>  <CHROM.1>
-55.31187279,165.19539913,68.78153133,-79.69559615,169.15822259,-162.50316765
65.26104663,-136.32728156,71.55699022,16.84359707,-118.54183513,-9.54910774
-7.66710706,8.24358914,-2.06282633,0.91068208,-1.18369668

>  <Name>
1uts_lig

>  <RI>
0

>  <Rbt.Current_Directory>
/home/itssahil/PROJECTS/Mol_Feturizer/New_Systems/rnas/1uts

>  <Rbt.Executable>
rbdock ($Id: //depot/dev/client3/rdock/2013.1/src/exe/rbdock.cxx#4 $)

>  <Rbt.Library>
libRbt.so (2013.1, Build901 2013/11/27)

>  <Rbt.Parameter_File>
/export/apps/rDock/src/rDock_2013.1_src/data/scripts/dock_solv.prm

>  <Rbt.Receptor>
prm/blind_docking_100.prm

>  <SCORE>
-29.3378

>  <SCORE.INTER>
-33.3222

>  <SCORE.INTER.CONST>
1

>  <SCORE.INTER.POLAR>
-2.91122

>  <SCORE.INTER.ROT>
10

>  <SCORE.INTER.SOLV>
10.6454

>  <SCORE.INTER.VDW>
-26.3258

>  <SCORE.INTER.norm>
-1.11074

>  <SCORE.INTRA>
0.23626

>  <SCORE.INTRA.DIHEDRAL>
-2.34854

>  <SCORE.INTRA.DIHEDRAL.0>
18.0451

>  <SCORE.INTRA.POLAR>
0.196815

>  <SCORE.INTRA.POLAR.0>
-0.196815

>  <SCORE.INTRA.REPUL>
0

>  <SCORE.INTRA.REPUL.0>
0

>  <SCORE.INTRA.SOLV>
0.220988

>  <SCORE.INTRA.SOLV.lig_0>
-14.7906

>  <SCORE.INTRA.VDW>
0.630863

>  <SCORE.INTRA.VDW.0>
-0.411701

>  <SCORE.INTRA.norm>
0.00787534

>  <SCORE.RESTR>
3.74815

>  <SCORE.RESTR.CAVITY>
3.74815

>  <SCORE.RESTR.norm>
0.124938

>  <SCORE.SYSTEM>
0

>  <SCORE.SYSTEM.CONST>
0

>  <SCORE.SYSTEM.DIHEDRAL>
0

>  <SCORE.SYSTEM.SOLV>
0

>  <SCORE.SYSTEM.norm>
0

>  <SCORE.heavy>
30

>  <SCORE.norm>
-0.977926

>  <RMSD>
18.237

$$$$
1uts_lig
 OpenBabel11021811413D
libRbt.so/2013.1/901 2013/11/27
 30 33  0  0  0  0  0  0  0  0999 V2000
  -13.0040   -2.5495   10.5610 N   0  0  0  0  0  0  0  0  0  0  0  0
  -11.2729   -1.8041    8.9847 C   0  0  0  0  0  0  0  0  0  0  0  0
  -13.0284   -6.3199    6.9518 C   0  0  0  0  0  0  0  0  0  0  0  0
  -10.7686   -3.2237    8.7093 C   0  0  0  0  0  0  0  0  0  0  0  0
  -11.6241   -3.8541    7.7447 O   0  0  0  0  0  0  0  0  0  0  0  0
  -12.7732   -1.8426    9.2810 C   0  0  0  0  0  0  0  0  0  0  0  0
  -13.1584   -6.8893    8.3123 N   0  0  0  0  0  0  0  0  0  0  0  0
  -12.5338   -5.9713    9.3013 C   0  0  0  0  0  0  0  0  0  0  0  0
  -11.9239   -6.7829   10.4479 C   0  0  0  0  0  0  0  0  0  0  0  0
  -10.4968   -7.0489   10.1585 N   0  0  0  0  0  0  0  0  0  0  0  0
  -10.3934   -7.9267    8.9574 C   0  0  0  0  0  0  0  0  0  0  0  0
   -9.8674   -7.7061   11.3387 C   0  0  0  0  0  0  0  0  0  0  0  0
   -8.9125   -8.2084    8.6560 C   0  0  0  0  0  0  0  0  0  0  0  0
   -8.3854   -7.9920   11.0366 C   0  0  0  0  0  0  0  0  0  0  0  0
   -8.2828   -8.8667    9.8355 N   0  0  0  0  0  0  0  0  0  0  0  0
   -8.8080   -5.6408    5.9815 C   0  0  0  0  0  0  0  0  0  0  0  0
   -6.6863  -10.9279    2.8802 N   0  0  0  0  0  0  0  0  0  0  0  0
   -9.4411   -6.8472    5.5980 C   0  0  0  0  0  0  0  0  0  0  0  0
  -10.8088   -7.0610    5.9160 C   0  0  0  0  0  0  0  0  0  0  0  0
  -11.5450   -6.0659    6.6156 C   0  0  0  0  0  0  0  0  0  0  0  0
  -10.9003   -4.8570    7.0157 C   0  0  0  0  0  0  0  0  0  0  0  0
   -9.5318   -4.6471    6.6919 C   0  0  0  0  0  0  0  0  0  0  0  0
   -7.5071  -12.0005    3.2968 C   0  0  0  0  0  0  0  0  0  0  0  0
   -8.5335  -11.5471    4.1562 C   0  0  0  0  0  0  0  0  0  0  0  0
   -9.0973   -9.1895    4.9856 C   0  0  0  0  0  0  0  0  0  0  0  0
   -8.7084   -7.8244    4.9097 C   0  0  0  0  0  0  0  0  0  0  0  0
   -7.5797   -7.4512    4.1292 C   0  0  0  0  0  0  0  0  0  0  0  0
   -6.8434   -8.4416    3.4245 C   0  0  0  0  0  0  0  0  0  0  0  0
   -7.2454   -9.8123    3.4917 C   0  0  0  0  0  0  0  0  0  0  0  0
   -8.3614  -10.1834    4.2639 C   0  0  0  0  0  0  0  0  0  0  0  0
  1  6  1  0  0  0  0
  2  4  1  0  0  0  0
  3  7  1  0  0  0  0
  4  5  1  0  0  0  0
  6  2  1  0  0  0  0
  7  8  1  0  0  0  0
  8  9  1  0  0  0  0
  9 10  1  0  0  0  0
 10 11  1  0  0  0  0
 10 12  1  0  0  0  0
 11 13  1  0  0  0  0
 13 15  1  0  0  0  0
 14 12  1  0  0  0  0
 15 14  1  0  0  0  0
 16 18  2  0  0  0  0
 16 22  1  0  0  0  0
 17 23  1  0  0  0  0
 17 29  1  0  0  0  0
 18 19  1  0  0  0  0
 18 26  1  0  0  0  0
 19 20  2  0  0  0  0
 20  3  1  0  0  0  0
 20 21  1  0  0  0  0
 21  5  1  0  0  0  0
 21 22  2  0  0  0  0
 23 24  2  0  0  0  0
 24 30  1  0  0  0  0
 25 26  2  0  0  0  0
 25 30  1  0  0  0  0
 26 27  1  0  0  0  0
 27 28  2  0  0  0  0
 28 29  1  0  0  0  0
 29 30  2  0  0  0  0
M  END
>  <CHROM.1>
53.52411004,49.58654889,57.20304319,153.19849172,67.02004000,-146.97330000
93.32440658,-65.19977335,154.47630287,94.05833009,143.94573230,-10.00615568
-6.91513264,7.26420635,2.88693950,-1.06824804,2.02417210

>  <Name>
1uts_lig

>  <RI>
0

>  <Rbt.Current_Directory>
/home/itssahil/PROJECTS/Mol_Feturizer/New_Systems/rnas/1uts

>  <Rbt.Executable>
rbdock ($Id: //depot/dev/client3/rdock/2013.1/src/exe/rbdock.cxx#4 $)

>  <Rbt.Library>
libRbt.so (2013.1, Build901 2013/11/27)

>  <Rbt.Parameter_File>
/export/apps/rDock/src/rDock_2013.1_src/data/scripts/dock_solv.prm

>  <Rbt.Receptor>
prm/blind_docking_20.prm

>  <SCORE>
-11.4407

>  <SCORE.INTER>
-15.1671

>  <SCORE.INTER.CONST>
1

>  <SCORE.INTER.POLAR>
-1.63125

>  <SCORE.INTER.ROT>
10

>  <SCORE.INTER.SOLV>
6.1137

>  <SCORE.INTER.VDW>
-16.9784

>  <SCORE.INTER.norm>
-0.505569

>  <SCORE.INTRA>
1.79449

>  <SCORE.INTRA.DIHEDRAL>
-5.63477

>  <SCORE.INTRA.DIHEDRAL.0>
18.0451

>  <SCORE.INTRA.POLAR>
0.196815

>  <SCORE.INTRA.POLAR.0>
-0.196815

>  <SCORE.INTRA.REPUL>
0

>  <SCORE.INTRA.REPUL.0>
0

>  <SCORE.INTRA.SOLV>
0.487989

>  <SCORE.INTRA.SOLV.lig_0>
-14.7906

>  <SCORE.INTRA.VDW>
3.69871

>  <SCORE.INTRA.VDW.0>
-0.411701

>  <SCORE.INTRA.norm>
0.0598164

>  <SCORE.RESTR>
1.93186

>  <SCORE.RESTR.CAVITY>
1.93186

>  <SCORE.RESTR.norm>
0.0643953

>  <SCORE.SYSTEM>
0

>  <SCORE.SYSTEM.CONST>
0

>  <SCORE.SYSTEM.DIHEDRAL>
0

>  <SCORE.SYSTEM.SOLV>
0

>  <SCORE.SYSTEM.norm>
0

>  <SCORE.heavy>
30

>  <SCORE.norm>
-0.381357

>  <RMSD>
18.251

$$$$
1uts_lig
 OpenBabel11021811413D
libRbt.so/2013.1/901 2013/11/27
 30 33  0  0  0  0  0  0  0  0999 V2000
  -10.2763   -1.7652    8.8007 N   0  0  0  0  0  0  0  0  0  0  0  0
   -9.5236   -4.0335    8.2304 C   0  0  0  0  0  0  0  0  0  0  0  0
  -11.7214   -7.1507    6.8673 C   0  0  0  0  0  0  0  0  0  0  0  0
  -10.8831   -4.4427    7.6563 C   0  0  0  0  0  0  0  0  0  0  0  0
  -10.8209   -4.4203    6.2227 O   0  0  0  0  0  0  0  0  0  0  0  0
   -9.7286   -3.0219    9.3594 C   0  0  0  0  0  0  0  0  0  0  0  0
  -11.3816   -7.9525    8.0647 N   0  0  0  0  0  0  0  0  0  0  0  0
  -10.3644   -7.2336    8.8768 C   0  0  0  0  0  0  0  0  0  0  0  0
   -9.7722   -8.1824    9.9230 C   0  0  0  0  0  0  0  0  0  0  0  0
  -10.4744   -7.9941   11.2123 N   0  0  0  0  0  0  0  0  0  0  0  0
   -9.8031   -6.9095   11.9848 C   0  0  0  0  0  0  0  0  0  0  0  0
  -10.4493   -9.2713   11.9798 C   0  0  0  0  0  0  0  0  0  0  0  0
  -10.5276   -6.7137   13.3265 C   0  0  0  0  0  0  0  0  0  0  0  0
  -11.1712   -9.0755   13.3251 C   0  0  0  0  0  0  0  0  0  0  0  0
  -10.5016   -7.9904   14.0950 N   0  0  0  0  0  0  0  0  0  0  0  0
   -8.1131   -6.3986    4.4946 C   0  0  0  0  0  0  0  0  0  0  0  0
   -5.3021  -12.0600    3.1851 N   0  0  0  0  0  0  0  0  0  0  0  0
   -8.5017   -7.7254    4.7976 C   0  0  0  0  0  0  0  0  0  0  0  0
   -9.6718   -7.9620    5.5673 C   0  0  0  0  0  0  0  0  0  0  0  0
  -10.4558   -6.8705    6.0319 C   0  0  0  0  0  0  0  0  0  0  0  0
  -10.0531   -5.5329    5.7390 C   0  0  0  0  0  0  0  0  0  0  0  0
   -8.8826   -5.3022    4.9655 C   0  0  0  0  0  0  0  0  0  0  0  0
   -4.5796  -12.2025    4.3915 C   0  0  0  0  0  0  0  0  0  0  0  0
   -4.9773  -11.2295    5.3365 C   0  0  0  0  0  0  0  0  0  0  0  0
   -6.7419   -9.3782    5.1857 C   0  0  0  0  0  0  0  0  0  0  0  0
   -7.7229   -8.7964    4.3374 C   0  0  0  0  0  0  0  0  0  0  0  0
   -7.9176   -9.3070    3.0245 C   0  0  0  0  0  0  0  0  0  0  0  0
   -7.1338  -10.3988    2.5625 C   0  0  0  0  0  0  0  0  0  0  0  0
   -6.1573  -10.9909    3.4232 C   0  0  0  0  0  0  0  0  0  0  0  0
   -5.9629  -10.4866    4.7222 C   0  0  0  0  0  0  0  0  0  0  0  0
  1  6  1  0  0  0  0
  2  4  1  0  0  0  0
  3  7  1  0  0  0  0
  4  5  1  0  0  0  0
  6  2  1  0  0  0  0
  7  8  1  0  0  0  0
  8  9  1  0  0  0  0
  9 10  1  0  0  0  0
 10 11  1  0  0  0  0
 10 12  1  0  0  0  0
 11 13  1  0  0  0  0
 13 15  1  0  0  0  0
 14 12  1  0  0  0  0
 15 14  1  0  0  0  0
 16 18  2  0  0  0  0
 16 22  1  0  0  0  0
 17 23  1  0  0  0  0
 17 29  1  0  0  0  0
 18 19  1  0  0  0  0
 18 26  1  0  0  0  0
 19 20  2  0  0  0  0
 20  3  1  0  0  0  0
 20 21  1  0  0  0  0
 21  5  1  0  0  0  0
 21 22  2  0  0  0  0
 23 24  2  0  0  0  0
 24 30  1  0  0  0  0
 25 26  2  0  0  0  0
 25 30  1  0  0  0  0
 26 27  1  0  0  0  0
 27 28  2  0  0  0  0
 28 29  1  0  0  0  0
 29 30  2  0  0  0  0
M  END
>  <CHROM.1>
-134.91384879,134.37982804,57.77753791,73.12843663,-66.51157872,-166.83733168
-96.48005807,-87.90649317,95.72690071,56.69737298,59.71042672,-9.07952160
-7.60284561,7.42546039,2.74221009,-1.06466499,2.18696994

>  <Name>
1uts_lig

>  <RI>
0

>  <Rbt.Current_Directory>
/home/itssahil/PROJECTS/Mol_Feturizer/New_Systems/rnas/1uts

>  <Rbt.Executable>
rbdock ($Id: //depot/dev/client3/rdock/2013.1/src/exe/rbdock.cxx#4 $)

>  <Rbt.Library>
libRbt.so (2013.1, Build901 2013/11/27)

>  <Rbt.Parameter_File>
/export/apps/rDock/src/rDock_2013.1_src/data/scripts/dock_solv.prm

>  <Rbt.Receptor>
prm/blind_docking_100.prm

>  <SCORE>
-13.3792

>  <SCORE.INTER>
-22.5854

>  <SCORE.INTER.CONST>
1

>  <SCORE.INTER.POLAR>
-1.78383

>  <SCORE.INTER.ROT>
10

>  <SCORE.INTER.SOLV>
8.9878

>  <SCORE.INTER.VDW>
-22.3734

>  <SCORE.INTER.norm>
-0.752846

>  <SCORE.INTRA>
5.05857

>  <SCORE.INTRA.DIHEDRAL>
5.59434

>  <SCORE.INTRA.DIHEDRAL.0>
18.0451

>  <SCORE.INTRA.POLAR>
0.196815

>  <SCORE.INTRA.POLAR.0>
-0.196815

>  <SCORE.INTRA.REPUL>
0

>  <SCORE.INTRA.REPUL.0>
0

>  <SCORE.INTRA.SOLV>
-0.158024

>  <SCORE.INTRA.SOLV.lig_0>
-14.7906

>  <SCORE.INTRA.VDW>
1.67124

>  <SCORE.INTRA.VDW.0>
-0.411701

>  <SCORE.INTRA.norm>
0.168619

>  <SCORE.RESTR>
4.14757

>  <SCORE.RESTR.CAVITY>
4.14757

>  <SCORE.RESTR.norm>
0.138252

>  <SCORE.SYSTEM>
0

>  <SCORE.SYSTEM.CONST>
0

>  <SCORE.SYSTEM.DIHEDRAL>
0

>  <SCORE.SYSTEM.SOLV>
0

>  <SCORE.SYSTEM.norm>
0

>  <SCORE.heavy>
30

>  <SCORE.norm>
-0.445975

>  <RMSD>
18.254

$$$$
1uts_lig
 OpenBabel11021811413D
libRbt.so/2013.1/901 2013/11/27
 30 33  0  0  0  0  0  0  0  0999 V2000
  -11.1756   -8.9020   13.9032 N   0  0  0  0  0  0  0  0  0  0  0  0
  -10.0548   -8.2862   11.8052 C   0  0  0  0  0  0  0  0  0  0  0  0
  -10.9790   -7.2346    7.8067 C   0  0  0  0  0  0  0  0  0  0  0  0
   -8.7648   -7.7124   11.2121 C   0  0  0  0  0  0  0  0  0  0  0  0
   -9.0793   -6.9457   10.0403 O   0  0  0  0  0  0  0  0  0  0  0  0
   -9.9789   -8.2437   13.3324 C   0  0  0  0  0  0  0  0  0  0  0  0
  -11.1399   -6.1572    6.8041 N   0  0  0  0  0  0  0  0  0  0  0  0
  -10.3911   -4.9495    7.2419 C   0  0  0  0  0  0  0  0  0  0  0  0
  -11.2525   -4.1268    8.2045 C   0  0  0  0  0  0  0  0  0  0  0  0
  -10.3896   -3.1929    8.9623 N   0  0  0  0  0  0  0  0  0  0  0  0
  -10.2978   -3.6474   10.3796 C   0  0  0  0  0  0  0  0  0  0  0  0
  -10.9660   -1.8204    8.8925 C   0  0  0  0  0  0  0  0  0  0  0  0
   -9.4053   -2.6775   11.1708 C   0  0  0  0  0  0  0  0  0  0  0  0
  -10.0751   -0.8490    9.6875 C   0  0  0  0  0  0  0  0  0  0  0  0
   -9.9820   -1.3048   11.1024 N   0  0  0  0  0  0  0  0  0  0  0  0
   -6.9194   -8.8782    7.6255 C   0  0  0  0  0  0  0  0  0  0  0  0
   -6.0667  -12.0898    2.1351 N   0  0  0  0  0  0  0  0  0  0  0  0
   -7.8076   -9.0544    6.5377 C   0  0  0  0  0  0  0  0  0  0  0  0
   -9.1218   -8.5196    6.6031 C   0  0  0  0  0  0  0  0  0  0  0  0
   -9.5472   -7.8051    7.7566 C   0  0  0  0  0  0  0  0  0  0  0  0
   -8.6553   -7.6428    8.8591 C   0  0  0  0  0  0  0  0  0  0  0  0
   -7.3399   -8.1776    8.7866 C   0  0  0  0  0  0  0  0  0  0  0  0
   -5.5717  -13.1925    2.8677 C   0  0  0  0  0  0  0  0  0  0  0  0
   -5.7272  -12.9867    4.2573 C   0  0  0  0  0  0  0  0  0  0  0  0
   -6.7500  -11.0261    5.5511 C   0  0  0  0  0  0  0  0  0  0  0  0
   -7.3816   -9.7612    5.4043 C   0  0  0  0  0  0  0  0  0  0  0  0
   -7.5867   -9.2176    4.1063 C   0  0  0  0  0  0  0  0  0  0  0  0
   -7.1627   -9.9393    2.9579 C   0  0  0  0  0  0  0  0  0  0  0  0
   -6.5401  -11.2179    3.1082 C   0  0  0  0  0  0  0  0  0  0  0  0
   -6.3358  -11.7570    4.3915 C   0  0  0  0  0  0  0  0  0  0  0  0
  1  6  1  0  0  0  0
  2  4  1  0  0  0  0
  3  7  1  0  0  0  0
  4  5  1  0  0  0  0
  6  2  1  0  0  0  0
  7  8  1  0  0  0  0
  8  9  1  0  0  0  0
  9 10  1  0  0  0  0
 10 11  1  0  0  0  0
 10 12  1  0  0  0  0
 11 13  1  0  0  0  0
 13 15  1  0  0  0  0
 14 12  1  0  0  0  0
 15 14  1  0  0  0  0
 16 18  2  0  0  0  0
 16 22  1  0  0  0  0
 17 23  1  0  0  0  0
 17 29  1  0  0  0  0
 18 19  1  0  0  0  0
 18 26  1  0  0  0  0
 19 20  2  0  0  0  0
 20  3  1  0  0  0  0
 20 21  1  0  0  0  0
 21  5  1  0  0  0  0
 21 22  2  0  0  0  0
 23 24  2  0  0  0  0
 24 30  1  0  0  0  0
 25 26  2  0  0  0  0
 25 30  1  0  0  0  0
 26 27  1  0  0  0  0
 27 28  2  0  0  0  0
 28 29  1  0  0  0  0
 29 30  2  0  0  0  0
M  END
>  <CHROM.1>
76.47547063,-141.95707191,-71.85983095,-107.78215961,-175.27021210,-84.33535667
162.04753153,-108.95796211,48.98993712,-66.80597403,131.02938077,-8.84898753
-7.43640666,7.86839052,-3.12498390,1.20653015,-0.86395847

>  <Name>
1uts_lig

>  <RI>
0

>  <Rbt.Current_Directory>
/home/itssahil/PROJECTS/Mol_Feturizer/New_Systems/rnas/1uts

>  <Rbt.Executable>
rbdock ($Id: //depot/dev/client3/rdock/2013.1/src/exe/rbdock.cxx#4 $)

>  <Rbt.Library>
libRbt.so (2013.1, Build901 2013/11/27)

>  <Rbt.Parameter_File>
/export/apps/rDock/src/rDock_2013.1_src/data/scripts/dock_solv.prm

>  <Rbt.Receptor>
prm/blind_docking_60.prm

>  <SCORE>
-14.0359

>  <SCORE.INTER>
-22.2618

>  <SCORE.INTER.CONST>
1

>  <SCORE.INTER.POLAR>
-1.66039

>  <SCORE.INTER.ROT>
10

>  <SCORE.INTER.SOLV>
8.13096

>  <SCORE.INTER.VDW>
-22.2836

>  <SCORE.INTER.norm>
-0.742061

>  <SCORE.INTRA>
3.8296

>  <SCORE.INTRA.DIHEDRAL>
5.28517

>  <SCORE.INTRA.DIHEDRAL.0>
18.0451

>  <SCORE.INTRA.POLAR>
0.196815

>  <SCORE.INTRA.POLAR.0>
-0.196815

>  <SCORE.INTRA.REPUL>
0

>  <SCORE.INTRA.REPUL.0>
0

>  <SCORE.INTRA.SOLV>
-0.476119

>  <SCORE.INTRA.SOLV.lig_0>
-14.7906

>  <SCORE.INTRA.VDW>
0.755903

>  <SCORE.INTRA.VDW.0>
-0.411701

>  <SCORE.INTRA.norm>
0.127653

>  <SCORE.RESTR>
4.39631

>  <SCORE.RESTR.CAVITY>
4.39631

>  <SCORE.RESTR.norm>
0.146544

>  <SCORE.SYSTEM>
0

>  <SCORE.SYSTEM.CONST>
0

>  <SCORE.SYSTEM.DIHEDRAL>
0

>  <SCORE.SYSTEM.SOLV>
0

>  <SCORE.SYSTEM.norm>
0

>  <SCORE.heavy>
30

>  <SCORE.norm>
-0.467864

>  <RMSD>
18.264

$$$$
1uts_lig
 OpenBabel11021811413D
libRbt.so/2013.1/901 2013/11/27
 30 33  0  0  0  0  0  0  0  0999 V2000
  -10.8769   -9.0045   12.6839 N   0  0  0  0  0  0  0  0  0  0  0  0
   -9.0151   -7.4891   12.1602 C   0  0  0  0  0  0  0  0  0  0  0  0
  -11.7775   -6.6089    7.8501 C   0  0  0  0  0  0  0  0  0  0  0  0
   -9.8193   -6.6886   11.1318 C   0  0  0  0  0  0  0  0  0  0  0  0
  -10.6871   -7.5758   10.4108 O   0  0  0  0  0  0  0  0  0  0  0  0
   -9.9517   -8.0006   13.2562 C   0  0  0  0  0  0  0  0  0  0  0  0
  -11.3299   -5.2139    7.6367 N   0  0  0  0  0  0  0  0  0  0  0  0
  -10.3128   -4.8522    8.6594 C   0  0  0  0  0  0  0  0  0  0  0  0
   -9.5873   -3.5711    8.2377 C   0  0  0  0  0  0  0  0  0  0  0  0
  -10.2152   -2.4076    8.9033 N   0  0  0  0  0  0  0  0  0  0  0  0
   -9.9020   -2.4460   10.3608 C   0  0  0  0  0  0  0  0  0  0  0  0
  -11.6890   -2.4505    8.6868 C   0  0  0  0  0  0  0  0  0  0  0  0
  -10.5558   -1.2410   11.0562 C   0  0  0  0  0  0  0  0  0  0  0  0
  -12.3453   -1.2463    9.3859 C   0  0  0  0  0  0  0  0  0  0  0  0
  -12.0300   -1.2840   10.8411 N   0  0  0  0  0  0  0  0  0  0  0  0
   -8.3276   -9.3072    8.0303 C   0  0  0  0  0  0  0  0  0  0  0  0
   -6.3336  -10.8911    2.1594 N   0  0  0  0  0  0  0  0  0  0  0  0
   -8.8321   -8.8799    6.7789 C   0  0  0  0  0  0  0  0  0  0  0  0
   -9.9506   -8.0059    6.7276 C   0  0  0  0  0  0  0  0  0  0  0  0
  -10.5633   -7.5562    7.9294 C   0  0  0  0  0  0  0  0  0  0  0  0
  -10.0630   -8.0013    9.1899 C   0  0  0  0  0  0  0  0  0  0  0  0
   -8.9412   -8.8737    9.2351 C   0  0  0  0  0  0  0  0  0  0  0  0
   -5.6965  -11.9944    2.7714 C   0  0  0  0  0  0  0  0  0  0  0  0
   -5.9662  -12.0280    4.1584 C   0  0  0  0  0  0  0  0  0  0  0  0
   -7.3900  -10.4795    5.6209 C   0  0  0  0  0  0  0  0  0  0  0  0
   -8.2238   -9.3285    5.5981 C   0  0  0  0  0  0  0  0  0  0  0  0
   -8.4451   -8.6377    4.3750 C   0  0  0  0  0  0  0  0  0  0  0  0
   -7.8353   -9.0989    3.1771 C   0  0  0  0  0  0  0  0  0  0  0  0
   -7.0081  -10.2652    3.2008 C   0  0  0  0  0  0  0  0  0  0  0  0
   -6.7875  -10.9497    4.4100 C   0  0  0  0  0  0  0  0  0  0  0  0
  1  6  1  0  0  0  0
  2  4  1  0  0  0  0
  3  7  1  0  0  0  0
  4  5  1  0  0  0  0
  6  2  1  0  0  0  0
  7  8  1  0  0  0  0
  8  9  1  0  0  0  0
  9 10  1  0  0  0  0
 10 11  1  0  0  0  0
 10 12  1  0  0  0  0
 11 13  1  0  0  0  0
 13 15  1  0  0  0  0
 14 12  1  0  0  0  0
 15 14  1  0  0  0  0
 16 18  2  0  0  0  0
 16 22  1  0  0  0  0
 17 23  1  0  0  0  0
 17 29  1  0  0  0  0
 18 19  1  0  0  0  0
 18 26  1  0  0  0  0
 19 20  2  0  0  0  0
 20  3  1  0  0  0  0
 20 21  1  0  0  0  0
 21  5  1  0  0  0  0
 21 22  2  0  0  0  0
 23 24  2  0  0  0  0
 24 30  1  0  0  0  0
 25 26  2  0  0  0  0
 25 30  1  0  0  0  0
 26 27  1  0  0  0  0
 27 28  2  0  0  0  0
 28 29  1  0  0  0  0
 29 30  2  0  0  0  0
M  END
>  <CHROM.1>
-18.87387583,-68.35739736,-52.12938513,-94.70698689,67.19345257,165.33134722
96.32538367,70.23713610,18.44881653,-81.22078273,-110.77219699,-9.43976723
-7.00732440,7.96050663,-3.11336562,1.17785181,-0.88341437

>  <Name>
1uts_lig

>  <RI>
0

>  <Rbt.Current_Directory>
/home/itssahil/PROJECTS/Mol_Feturizer/New_Systems/rnas/1uts

>  <Rbt.Executable>
rbdock ($Id: //depot/dev/client3/rdock/2013.1/src/exe/rbdock.cxx#4 $)

>  <Rbt.Library>
libRbt.so (2013.1, Build901 2013/11/27)

>  <Rbt.Parameter_File>
/export/apps/rDock/src/rDock_2013.1_src/data/scripts/dock_solv.prm

>  <Rbt.Receptor>
prm/blind_docking_60.prm

>  <SCORE>
-8.51719

>  <SCORE.INTER>
-18.9472

>  <SCORE.INTER.CONST>
1

>  <SCORE.INTER.POLAR>
-1.32908

>  <SCORE.INTER.ROT>
10

>  <SCORE.INTER.SOLV>
6.72103

>  <SCORE.INTER.VDW>
-20.7082

>  <SCORE.INTER.norm>
-0.631574

>  <SCORE.INTRA>
5.04604

>  <SCORE.INTRA.DIHEDRAL>
-0.412703

>  <SCORE.INTRA.DIHEDRAL.0>
18.0451

>  <SCORE.INTRA.POLAR>
-0.566176

>  <SCORE.INTRA.POLAR.0>
-0.196815

>  <SCORE.INTRA.REPUL>
0

>  <SCORE.INTRA.REPUL.0>
0

>  <SCORE.INTRA.SOLV>
0.370131

>  <SCORE.INTRA.SOLV.lig_0>
-14.7906

>  <SCORE.INTRA.VDW>
6.99232

>  <SCORE.INTRA.VDW.0>
-0.411701

>  <SCORE.INTRA.norm>
0.168201

>  <SCORE.RESTR>
5.38399

>  <SCORE.RESTR.CAVITY>
5.38399

>  <SCORE.RESTR.norm>
0.179466

>  <SCORE.SYSTEM>
0

>  <SCORE.SYSTEM.CONST>
0

>  <SCORE.SYSTEM.DIHEDRAL>
0

>  <SCORE.SYSTEM.SOLV>
0

>  <SCORE.SYSTEM.norm>
0

>  <SCORE.heavy>
30

>  <SCORE.norm>
-0.283906

>  <RMSD>
18.269

$$$$
1uts_lig
 OpenBabel11021811413D
libRbt.so/2013.1/901 2013/11/27
 30 33  0  0  0  0  0  0  0  0999 V2000
   -5.3526  -12.0319    3.4135 N   0  0  0  0  0  0  0  0  0  0  0  0
   -7.1089  -10.5640    4.3066 C   0  0  0  0  0  0  0  0  0  0  0  0
   -7.8249   -7.6289    5.1081 C   0  0  0  0  0  0  0  0  0  0  0  0
   -8.0744  -10.3828    5.4814 C   0  0  0  0  0  0  0  0  0  0  0  0
   -7.3278  -10.0781    6.6686 O   0  0  0  0  0  0  0  0  0  0  0  0
   -6.1034  -11.6687    4.6365 C   0  0  0  0  0  0  0  0  0  0  0  0
   -9.0734   -7.5014    4.3226 N   0  0  0  0  0  0  0  0  0  0  0  0
   -9.3127   -6.0719    3.9907 C   0  0  0  0  0  0  0  0  0  0  0  0
   -9.9448   -5.3605    5.1906 C   0  0  0  0  0  0  0  0  0  0  0  0
  -11.3376   -5.8305    5.3642 N   0  0  0  0  0  0  0  0  0  0  0  0
  -12.2623   -4.6619    5.3072 C   0  0  0  0  0  0  0  0  0  0  0  0
  -11.4635   -6.5299    6.6742 C   0  0  0  0  0  0  0  0  0  0  0  0
  -13.7098   -5.1459    5.4910 C   0  0  0  0  0  0  0  0  0  0  0  0
  -12.9135   -7.0117    6.8610 C   0  0  0  0  0  0  0  0  0  0  0  0
  -13.8366   -5.8444    6.8015 N   0  0  0  0  0  0  0  0  0  0  0  0
   -8.7449   -7.8790    9.3866 C   0  0  0  0  0  0  0  0  0  0  0  0
  -11.0831   -2.0973   11.1735 N   0  0  0  0  0  0  0  0  0  0  0  0
   -8.9821   -6.6777    8.6768 C   0  0  0  0  0  0  0  0  0  0  0  0
   -8.6812   -6.6033    7.2907 C   0  0  0  0  0  0  0  0  0  0  0  0
   -8.1455   -7.7327    6.6129 C   0  0  0  0  0  0  0  0  0  0  0  0
   -7.8919   -8.9379    7.3341 C   0  0  0  0  0  0  0  0  0  0  0  0
   -8.1979   -9.0076    8.7209 C   0  0  0  0  0  0  0  0  0  0  0  0
  -10.7973   -1.1843   10.1330 C   0  0  0  0  0  0  0  0  0  0  0  0
  -10.1435   -1.8304    9.0594 C   0  0  0  0  0  0  0  0  0  0  0  0
   -9.4757   -4.2836    8.7437 C   0  0  0  0  0  0  0  0  0  0  0  0
   -9.5091   -5.5678    9.3522 C   0  0  0  0  0  0  0  0  0  0  0  0
  -10.0839   -5.7258   10.6432 C   0  0  0  0  0  0  0  0  0  0  0  0
  -10.6261   -4.6016   11.3228 C   0  0  0  0  0  0  0  0  0  0  0  0
  -10.6035   -3.3135   10.7022 C   0  0  0  0  0  0  0  0  0  0  0  0
  -10.0347   -3.1552    9.4252 C   0  0  0  0  0  0  0  0  0  0  0  0
  1  6  1  0  0  0  0
  2  4  1  0  0  0  0
  3  7  1  0  0  0  0
  4  5  1  0  0  0  0
  6  2  1  0  0  0  0
  7  8  1  0  0  0  0
  8  9  1  0  0  0  0
  9 10  1  0  0  0  0
 10 11  1  0  0  0  0
 10 12  1  0  0  0  0
 11 13  1  0  0  0  0
 13 15  1  0  0  0  0
 14 12  1  0  0  0  0
 15 14  1  0  0  0  0
 16 18  2  0  0  0  0
 16 22  1  0  0  0  0
 17 23  1  0  0  0  0
 17 29  1  0  0  0  0
 18 19  1  0  0  0  0
 18 26  1  0  0  0  0
 19 20  2  0  0  0  0
 20  3  1  0  0  0  0
 20 21  1  0  0  0  0
 21  5  1  0  0  0  0
 21 22  2  0  0  0  0
 23 24  2  0  0  0  0
 24 30  1  0  0  0  0
 25 26  2  0  0  0  0
 25 30  1  0  0  0  0
 26 27  1  0  0  0  0
 27 28  2  0  0  0  0
 28 29  1  0  0  0  0
 29 30  2  0  0  0  0
M  END
>  <CHROM.1>
168.43463806,57.47550799,98.58441562,131.14374389,168.64175205,-80.80845985
-70.75198647,-122.63961776,165.98969895,-68.17654140,-51.15272988,-9.62181915
-6.59152467,7.14641959,-0.96187646,-0.69316531,1.00472546

>  <Name>
1uts_lig

>  <RI>
0

>  <Rbt.Current_Directory>
/home/itssahil/PROJECTS/Mol_Feturizer/New_Systems/rnas/1uts

>  <Rbt.Executable>
rbdock ($Id: //depot/dev/client3/rdock/2013.1/src/exe/rbdock.cxx#4 $)

>  <Rbt.Library>
libRbt.so (2013.1, Build901 2013/11/27)

>  <Rbt.Parameter_File>
/export/apps/rDock/src/rDock_2013.1_src/data/scripts/dock_solv.prm

>  <Rbt.Receptor>
prm/blind_docking_100.prm

>  <SCORE>
-12.0618

>  <SCORE.INTER>
-22.2749

>  <SCORE.INTER.CONST>
1

>  <SCORE.INTER.POLAR>
-2.28662

>  <SCORE.INTER.ROT>
10

>  <SCORE.INTER.SOLV>
5.63684

>  <SCORE.INTER.VDW>
-19.3735

>  <SCORE.INTER.norm>
-0.742497

>  <SCORE.INTRA>
7.83054

>  <SCORE.INTRA.DIHEDRAL>
0.813752

>  <SCORE.INTRA.DIHEDRAL.0>
18.0451

>  <SCORE.INTRA.POLAR>
0.196815

>  <SCORE.INTRA.POLAR.0>
-0.196815

>  <SCORE.INTRA.REPUL>
0

>  <SCORE.INTRA.REPUL.0>
0

>  <SCORE.INTRA.SOLV>
-0.00012156

>  <SCORE.INTRA.SOLV.lig_0>
-14.7906

>  <SCORE.INTRA.VDW>
6.75455

>  <SCORE.INTRA.VDW.0>
-0.411701

>  <SCORE.INTRA.norm>
0.261018

>  <SCORE.RESTR>
2.38254

>  <SCORE.RESTR.CAVITY>
2.38254

>  <SCORE.RESTR.norm>
0.0794182

>  <SCORE.SYSTEM>
0

>  <SCORE.SYSTEM.CONST>
0

>  <SCORE.SYSTEM.DIHEDRAL>
0

>  <SCORE.SYSTEM.SOLV>
0

>  <SCORE.SYSTEM.norm>
0

>  <SCORE.heavy>
30

>  <SCORE.norm>
-0.402061

>  <RMSD>
18.277

$$$$
1uts_lig
 OpenBabel11021811413D
libRbt.so/2013.1/901 2013/11/27
 30 33  0  0  0  0  0  0  0  0999 V2000
   -9.0272  -11.8755    3.9077 N   0  0  0  0  0  0  0  0  0  0  0  0
   -7.0279  -10.4485    3.8479 C   0  0  0  0  0  0  0  0  0  0  0  0
   -6.3660   -8.1579    5.8192 C   0  0  0  0  0  0  0  0  0  0  0  0
   -7.4585   -9.5592    2.6779 C   0  0  0  0  0  0  0  0  0  0  0  0
   -7.1395   -8.1921    2.9764 O   0  0  0  0  0  0  0  0  0  0  0  0
   -7.5710  -11.8637    3.6417 C   0  0  0  0  0  0  0  0  0  0  0  0
   -6.5612   -9.1739    6.8783 N   0  0  0  0  0  0  0  0  0  0  0  0
   -6.9643   -8.5065    8.1445 C   0  0  0  0  0  0  0  0  0  0  0  0
   -8.1507   -9.2490    8.7663 C   0  0  0  0  0  0  0  0  0  0  0  0
   -8.7113   -8.4422    9.8734 N   0  0  0  0  0  0  0  0  0  0  0  0
   -9.7394   -9.2450   10.5962 C   0  0  0  0  0  0  0  0  0  0  0  0
   -9.3172   -7.1980    9.3206 C   0  0  0  0  0  0  0  0  0  0  0  0
  -10.3267   -8.4088   11.7446 C   0  0  0  0  0  0  0  0  0  0  0  0
   -9.9089   -6.3615   10.4693 C   0  0  0  0  0  0  0  0  0  0  0  0
  -10.9339   -7.1648   11.1922 N   0  0  0  0  0  0  0  0  0  0  0  0
  -10.2506   -6.6536    4.4548 C   0  0  0  0  0  0  0  0  0  0  0  0
  -13.7424   -4.8689    9.5642 N   0  0  0  0  0  0  0  0  0  0  0  0
   -9.9246   -6.6360    5.8320 C   0  0  0  0  0  0  0  0  0  0  0  0
   -8.6642   -7.1254    6.2674 C   0  0  0  0  0  0  0  0  0  0  0  0
   -7.7277   -7.6301    5.3240 C   0  0  0  0  0  0  0  0  0  0  0  0
   -8.0650   -7.6621    3.9375 C   0  0  0  0  0  0  0  0  0  0  0  0
   -9.3269   -7.1680    3.5072 C   0  0  0  0  0  0  0  0  0  0  0  0
  -14.5305   -6.0422    9.5771 C   0  0  0  0  0  0  0  0  0  0  0  0
  -14.0144   -7.0073    8.6827 C   0  0  0  0  0  0  0  0  0  0  0  0
  -11.9554   -6.9406    7.1595 C   0  0  0  0  0  0  0  0  0  0  0  0
  -10.8536   -6.1381    6.7564 C   0  0  0  0  0  0  0  0  0  0  0  0
  -10.6918   -4.8330    7.2975 C   0  0  0  0  0  0  0  0  0  0  0  0
  -11.6291   -4.3331    8.2415 C   0  0  0  0  0  0  0  0  0  0  0  0
  -12.7288   -5.1482    8.6554 C   0  0  0  0  0  0  0  0  0  0  0  0
  -12.8909   -6.4394    8.1208 C   0  0  0  0  0  0  0  0  0  0  0  0
  1  6  1  0  0  0  0
  2  4  1  0  0  0  0
  3  7  1  0  0  0  0
  4  5  1  0  0  0  0
  6  2  1  0  0  0  0
  7  8  1  0  0  0  0
  8  9  1  0  0  0  0
  9 10  1  0  0  0  0
 10 11  1  0  0  0  0
 10 12  1  0  0  0  0
 11 13  1  0  0  0  0
 13 15  1  0  0  0  0
 14 12  1  0  0  0  0
 15 14  1  0  0  0  0
 16 18  2  0  0  0  0
 16 22  1  0  0  0  0
 17 23  1  0  0  0  0
 17 29  1  0  0  0  0
 18 19  1  0  0  0  0
 18 26  1  0  0  0  0
 19 20  2  0  0  0  0
 20  3  1  0  0  0  0
 20 21  1  0  0  0  0
 21  5  1  0  0  0  0
 21 22  2  0  0  0  0
 23 24  2  0  0  0  0
 24 30  1  0  0  0  0
 25 26  2  0  0  0  0
 25 30  1  0  0  0  0
 26 27  1  0  0  0  0
 27 28  2  0  0  0  0
 28 29  1  0  0  0  0
 29 30  2  0  0  0  0
M  END
>  <CHROM.1>
-59.23408823,170.62835504,-74.43516278,-74.84922274,-73.94400639,133.62732329
-169.18516427,-172.23883672,78.01229168,53.29183443,97.09502508,-9.67269691
-7.70595816,7.12294561,-0.71696349,-0.68931825,1.66430773

>  <Name>
1uts_lig

>  <RI>
0

>  <Rbt.Current_Directory>
/home/itssahil/PROJECTS/Mol_Feturizer/New_Systems/rnas/1uts

>  <Rbt.Executable>
rbdock ($Id: //depot/dev/client3/rdock/2013.1/src/exe/rbdock.cxx#4 $)

>  <Rbt.Library>
libRbt.so (2013.1, Build901 2013/11/27)

>  <Rbt.Parameter_File>
/export/apps/rDock/src/rDock_2013.1_src/data/scripts/dock_solv.prm

>  <Rbt.Receptor>
prm/blind_docking_20.prm

>  <SCORE>
-20.5189

>  <SCORE.INTER>
-20.1325

>  <SCORE.INTER.CONST>
1

>  <SCORE.INTER.POLAR>
-1.1131

>  <SCORE.INTER.ROT>
10

>  <SCORE.INTER.SOLV>
6.01055

>  <SCORE.INTER.VDW>
-21.9815

>  <SCORE.INTER.norm>
-0.671082

>  <SCORE.INTRA>
-1.31928

>  <SCORE.INTRA.DIHEDRAL>
-1.73625

>  <SCORE.INTRA.DIHEDRAL.0>
18.0451

>  <SCORE.INTRA.POLAR>
0.196815

>  <SCORE.INTRA.POLAR.0>
-0.196815

>  <SCORE.INTRA.REPUL>
0

>  <SCORE.INTRA.REPUL.0>
0

>  <SCORE.INTRA.SOLV>
0.226139

>  <SCORE.INTRA.SOLV.lig_0>
-14.7906

>  <SCORE.INTRA.VDW>
-1.23339

>  <SCORE.INTRA.VDW.0>
-0.411701

>  <SCORE.INTRA.norm>
-0.0439759

>  <SCORE.RESTR>
0.932815

>  <SCORE.RESTR.CAVITY>
0.932815

>  <SCORE.RESTR.norm>
0.0310938

>  <SCORE.SYSTEM>
0

>  <SCORE.SYSTEM.CONST>
0

>  <SCORE.SYSTEM.DIHEDRAL>
0

>  <SCORE.SYSTEM.SOLV>
0

>  <SCORE.SYSTEM.norm>
0

>  <SCORE.heavy>
30

>  <SCORE.norm>
-0.683964

>  <RMSD>
18.314

$$$$
1uts_lig
 OpenBabel11021811413D
libRbt.so/2013.1/901 2013/11/27
 30 33  0  0  0  0  0  0  0  0999 V2000
  -10.7095   -8.9449   14.0392 N   0  0  0  0  0  0  0  0  0  0  0  0
   -9.9317   -8.1579   11.8454 C   0  0  0  0  0  0  0  0  0  0  0  0
  -11.5356   -7.5889    7.0024 C   0  0  0  0  0  0  0  0  0  0  0  0
   -9.8924   -6.8892   10.9886 C   0  0  0  0  0  0  0  0  0  0  0  0
  -10.5772   -7.1294    9.7504 O   0  0  0  0  0  0  0  0  0  0  0  0
  -11.0018   -8.0108   12.9285 C   0  0  0  0  0  0  0  0  0  0  0  0
  -12.0476   -6.4822    7.8422 N   0  0  0  0  0  0  0  0  0  0  0  0
  -11.2853   -5.2390    7.5516 C   0  0  0  0  0  0  0  0  0  0  0  0
  -11.8712   -4.0730    8.3534 C   0  0  0  0  0  0  0  0  0  0  0  0
  -10.7702   -3.2427    8.8913 N   0  0  0  0  0  0  0  0  0  0  0  0
  -10.4936   -3.6447   10.3004 C   0  0  0  0  0  0  0  0  0  0  0  0
  -11.1586   -1.8053    8.8273 C   0  0  0  0  0  0  0  0  0  0  0  0
   -9.3530   -2.7817   10.8639 C   0  0  0  0  0  0  0  0  0  0  0  0
  -10.0187   -0.9404    9.3947 C   0  0  0  0  0  0  0  0  0  0  0  0
   -9.7414   -1.3441   10.8012 N   0  0  0  0  0  0  0  0  0  0  0  0
   -7.5318   -8.8165    8.2976 C   0  0  0  0  0  0  0  0  0  0  0  0
   -4.6910  -11.8290    3.3215 N   0  0  0  0  0  0  0  0  0  0  0  0
   -7.9608   -9.0719    6.9731 C   0  0  0  0  0  0  0  0  0  0  0  0
   -9.2596   -8.6718    6.5601 C   0  0  0  0  0  0  0  0  0  0  0  0
  -10.1293   -8.0129    7.4719 C   0  0  0  0  0  0  0  0  0  0  0  0
   -9.7008   -7.7710    8.8117 C   0  0  0  0  0  0  0  0  0  0  0  0
   -8.3984   -8.1709    9.2186 C   0  0  0  0  0  0  0  0  0  0  0  0
   -5.5879  -12.8864    3.0474 C   0  0  0  0  0  0  0  0  0  0  0  0
   -6.7768  -12.7482    3.7992 C   0  0  0  0  0  0  0  0  0  0  0  0
   -7.5000  -10.9390    5.4629 C   0  0  0  0  0  0  0  0  0  0  0  0
   -7.0983   -9.7233    6.0802 C   0  0  0  0  0  0  0  0  0  0  0  0
   -5.8237   -9.1659    5.7853 C   0  0  0  0  0  0  0  0  0  0  0  0
   -4.9541   -9.8224    4.8730 C   0  0  0  0  0  0  0  0  0  0  0  0
   -5.3667  -11.0380    4.2429 C   0  0  0  0  0  0  0  0  0  0  0  0
   -6.6271  -11.5913    4.5339 C   0  0  0  0  0  0  0  0  0  0  0  0
  1  6  1  0  0  0  0
  2  4  1  0  0  0  0
  3  7  1  0  0  0  0
  4  5  1  0  0  0  0
  6  2  1  0  0  0  0
  7  8  1  0  0  0  0
  8  9  1  0  0  0  0
  9 10  1  0  0  0  0
 10 11  1  0  0  0  0
 10 12  1  0  0  0  0
 11 13  1  0  0  0  0
 13 15  1  0  0  0  0
 14 12  1  0  0  0  0
 15 14  1  0  0  0  0
 16 18  2  0  0  0  0
 16 22  1  0  0  0  0
 17 23  1  0  0  0  0
 17 29  1  0  0  0  0
 18 19  1  0  0  0  0
 18 26  1  0  0  0  0
 19 20  2  0  0  0  0
 20  3  1  0  0  0  0
 20 21  1  0  0  0  0
 21  5  1  0  0  0  0
 21 22  2  0  0  0  0
 23 24  2  0  0  0  0
 24 30  1  0  0  0  0
 25 26  2  0  0  0  0
 25 30  1  0  0  0  0
 26 27  1  0  0  0  0
 27 28  2  0  0  0  0
 28 29  1  0  0  0  0
 29 30  2  0  0  0  0
M  END
>  <CHROM.1>
-63.90821854,-101.82733879,70.44713923,-83.23832110,-158.37085440,176.42212125
138.70334246,-97.00537672,122.03950088,-156.77791360,-174.95795414,-9.02920051
-7.41468055,8.07702088,2.80031220,1.08714598,-0.51896165

>  <Name>
1uts_lig

>  <RI>
0

>  <Rbt.Current_Directory>
/home/itssahil/PROJECTS/Mol_Feturizer/New_Systems/rnas/1uts

>  <Rbt.Executable>
rbdock ($Id: //depot/dev/client3/rdock/2013.1/src/exe/rbdock.cxx#4 $)

>  <Rbt.Library>
libRbt.so (2013.1, Build901 2013/11/27)

>  <Rbt.Parameter_File>
/export/apps/rDock/src/rDock_2013.1_src/data/scripts/dock_solv.prm

>  <Rbt.Receptor>
prm/blind_docking_40.prm

>  <SCORE>
-16.8032

>  <SCORE.INTER>
-24.7582

>  <SCORE.INTER.CONST>
1

>  <SCORE.INTER.POLAR>
-1.78898

>  <SCORE.INTER.ROT>
10

>  <SCORE.INTER.SOLV>
10.3279

>  <SCORE.INTER.VDW>
-24.2515

>  <SCORE.INTER.norm>
-0.825273

>  <SCORE.INTRA>
3.3468

>  <SCORE.INTRA.DIHEDRAL>
1.59992

>  <SCORE.INTRA.DIHEDRAL.0>
18.0451

>  <SCORE.INTRA.POLAR>
-0.432759

>  <SCORE.INTRA.POLAR.0>
-0.196815

>  <SCORE.INTRA.REPUL>
0

>  <SCORE.INTRA.REPUL.0>
0

>  <SCORE.INTRA.SOLV>
-0.0248012

>  <SCORE.INTRA.SOLV.lig_0>
-14.7906

>  <SCORE.INTRA.VDW>
4.03062

>  <SCORE.INTRA.VDW.0>
-0.411701

>  <SCORE.INTRA.norm>
0.11156

>  <SCORE.RESTR>
4.60818

>  <SCORE.RESTR.CAVITY>
4.60818

>  <SCORE.RESTR.norm>
0.153606

>  <SCORE.SYSTEM>
0

>  <SCORE.SYSTEM.CONST>
0

>  <SCORE.SYSTEM.DIHEDRAL>
0

>  <SCORE.SYSTEM.SOLV>
0

>  <SCORE.SYSTEM.norm>
0

>  <SCORE.heavy>
30

>  <SCORE.norm>
-0.560107

>  <RMSD>
18.315

$$$$
1uts_lig
 OpenBabel11021811413D
libRbt.so/2013.1/901 2013/11/27
 30 33  0  0  0  0  0  0  0  0999 V2000
  -11.6853   -7.0769    2.7805 N   0  0  0  0  0  0  0  0  0  0  0  0
  -10.8723   -5.2024    4.1452 C   0  0  0  0  0  0  0  0  0  0  0  0
   -9.5858   -7.8395    5.4906 C   0  0  0  0  0  0  0  0  0  0  0  0
   -9.6624   -4.3080    4.4307 C   0  0  0  0  0  0  0  0  0  0  0  0
   -8.6273   -5.0891    5.0457 O   0  0  0  0  0  0  0  0  0  0  0  0
  -10.5264   -6.1901    3.0295 C   0  0  0  0  0  0  0  0  0  0  0  0
   -8.5650   -8.8968    5.6695 N   0  0  0  0  0  0  0  0  0  0  0  0
   -7.2090   -8.3248    5.4575 C   0  0  0  0  0  0  0  0  0  0  0  0
   -6.1457   -9.3725    5.7999 C   0  0  0  0  0  0  0  0  0  0  0  0
   -6.1278  -10.4171    4.7513 N   0  0  0  0  0  0  0  0  0  0  0  0
   -7.1965  -11.4177    5.0349 C   0  0  0  0  0  0  0  0  0  0  0  0
   -4.7908  -11.0752    4.7323 C   0  0  0  0  0  0  0  0  0  0  0  0
   -7.1784  -12.5065    3.9499 C   0  0  0  0  0  0  0  0  0  0  0  0
   -4.7728  -12.1683    3.6486 C   0  0  0  0  0  0  0  0  0  0  0  0
   -5.8419  -13.1660    3.9312 N   0  0  0  0  0  0  0  0  0  0  0  0
   -9.3309   -4.9172    8.7480 C   0  0  0  0  0  0  0  0  0  0  0  0
  -11.3125   -7.8547   14.1693 N   0  0  0  0  0  0  0  0  0  0  0  0
   -9.8140   -6.2235    9.0001 C   0  0  0  0  0  0  0  0  0  0  0  0
   -9.8944   -7.1654    7.9399 C   0  0  0  0  0  0  0  0  0  0  0  0
   -9.4884   -6.8013    6.6268 C   0  0  0  0  0  0  0  0  0  0  0  0
   -9.0169   -5.4786    6.3714 C   0  0  0  0  0  0  0  0  0  0  0  0
   -8.9357   -4.5409    7.4372 C   0  0  0  0  0  0  0  0  0  0  0  0
  -11.0170   -9.2279   14.0120 C   0  0  0  0  0  0  0  0  0  0  0  0
  -10.5451   -9.4968   12.7071 C   0  0  0  0  0  0  0  0  0  0  0  0
  -10.1441   -7.9299   10.7201 C   0  0  0  0  0  0  0  0  0  0  0  0
  -10.2139   -6.5747   10.2971 C   0  0  0  0  0  0  0  0  0  0  0  0
  -10.6831   -5.5755   11.1936 C   0  0  0  0  0  0  0  0  0  0  0  0
  -11.0794   -5.9315   12.5111 C   0  0  0  0  0  0  0  0  0  0  0  0
  -10.9950   -7.2936   12.9382 C   0  0  0  0  0  0  0  0  0  0  0  0
  -10.5315   -8.2836   12.0525 C   0  0  0  0  0  0  0  0  0  0  0  0
  1  6  1  0  0  0  0
  2  4  1  0  0  0  0
  3  7  1  0  0  0  0
  4  5  1  0  0  0  0
  6  2  1  0  0  0  0
  7  8  1  0  0  0  0
  8  9  1  0  0  0  0
  9 10  1  0  0  0  0
 10 11  1  0  0  0  0
 10 12  1  0  0  0  0
 11 13  1  0  0  0  0
 13 15  1  0  0  0  0
 14 12  1  0  0  0  0
 15 14  1  0  0  0  0
 16 18  2  0  0  0  0
 16 22  1  0  0  0  0
 17 23  1  0  0  0  0
 17 29  1  0  0  0  0
 18 19  1  0  0  0  0
 18 26  1  0  0  0  0
 19 20  2  0  0  0  0
 20  3  1  0  0  0  0
 20 21  1  0  0  0  0
 21  5  1  0  0  0  0
 21 22  2  0  0  0  0
 23 24  2  0  0  0  0
 24 30  1  0  0  0  0
 25 26  2  0  0  0  0
 25 30  1  0  0  0  0
 26 27  1  0  0  0  0
 27 28  2  0  0  0  0
 28 29  1  0  0  0  0
 29 30  2  0  0  0  0
M  END
>  <CHROM.1>
-168.28469984,-69.39260339,-68.12507282,-69.06391406,178.50706709,173.47265374
72.15322687,-83.16779360,-152.72186578,-70.84626876,101.91102842,-9.01011506
-7.95313471,7.30248139,0.71560491,1.01042391,-1.16280972

>  <Name>
1uts_lig

>  <RI>
0

>  <Rbt.Current_Directory>
/home/itssahil/PROJECTS/Mol_Feturizer/New_Systems/rnas/1uts

>  <Rbt.Executable>
rbdock ($Id: //depot/dev/client3/rdock/2013.1/src/exe/rbdock.cxx#4 $)

>  <Rbt.Library>
libRbt.so (2013.1, Build901 2013/11/27)

>  <Rbt.Parameter_File>
/export/apps/rDock/src/rDock_2013.1_src/data/scripts/dock_solv.prm

>  <Rbt.Receptor>
prm/blind_docking_60.prm

>  <SCORE>
-12.1809

>  <SCORE.INTER>
-16.3018

>  <SCORE.INTER.CONST>
1

>  <SCORE.INTER.POLAR>
-0.590767

>  <SCORE.INTER.ROT>
10

>  <SCORE.INTER.SOLV>
9.52632

>  <SCORE.INTER.VDW>
-22.3407

>  <SCORE.INTER.norm>
-0.543392

>  <SCORE.INTRA>
-1.53751

>  <SCORE.INTRA.DIHEDRAL>
-8.65525

>  <SCORE.INTRA.DIHEDRAL.0>
18.0451

>  <SCORE.INTRA.POLAR>
0.196815

>  <SCORE.INTRA.POLAR.0>
-0.196815

>  <SCORE.INTRA.REPUL>
0

>  <SCORE.INTRA.REPUL.0>
0

>  <SCORE.INTRA.SOLV>
-0.0892598

>  <SCORE.INTRA.SOLV.lig_0>
-14.7906

>  <SCORE.INTRA.VDW>
2.16557

>  <SCORE.INTRA.VDW.0>
-0.411701

>  <SCORE.INTRA.norm>
-0.0512504

>  <SCORE.RESTR>
5.65834

>  <SCORE.RESTR.CAVITY>
5.65834

>  <SCORE.RESTR.norm>
0.188611

>  <SCORE.SYSTEM>
0

>  <SCORE.SYSTEM.CONST>
0

>  <SCORE.SYSTEM.DIHEDRAL>
0

>  <SCORE.SYSTEM.SOLV>
0

>  <SCORE.SYSTEM.norm>
0

>  <SCORE.heavy>
30

>  <SCORE.norm>
-0.406031

>  <RMSD>
18.316

$$$$
1uts_lig
 OpenBabel11021811413D
libRbt.so/2013.1/901 2013/11/27
 30 33  0  0  0  0  0  0  0  0999 V2000
   -4.6014  -11.9401    3.4621 N   0  0  0  0  0  0  0  0  0  0  0  0
   -5.6164  -10.3474    5.0338 C   0  0  0  0  0  0  0  0  0  0  0  0
   -9.0857   -6.7276    4.6065 C   0  0  0  0  0  0  0  0  0  0  0  0
   -6.5213   -9.5143    4.1215 C   0  0  0  0  0  0  0  0  0  0  0  0
   -6.5038   -8.1460    4.5543 O   0  0  0  0  0  0  0  0  0  0  0  0
   -5.5968  -11.7980    4.5485 C   0  0  0  0  0  0  0  0  0  0  0  0
   -8.8046   -5.2763    4.5244 N   0  0  0  0  0  0  0  0  0  0  0  0
   -9.3241   -4.5959    5.7401 C   0  0  0  0  0  0  0  0  0  0  0  0
  -10.8355   -4.8168    5.8513 C   0  0  0  0  0  0  0  0  0  0  0  0
  -11.1965   -5.0490    7.2679 N   0  0  0  0  0  0  0  0  0  0  0  0
  -11.9598   -6.3252    7.3787 C   0  0  0  0  0  0  0  0  0  0  0  0
  -12.0173   -3.9075    7.7622 C   0  0  0  0  0  0  0  0  0  0  0  0
  -12.3399   -6.5678    8.8484 C   0  0  0  0  0  0  0  0  0  0  0  0
  -12.4016   -4.1510    9.2327 C   0  0  0  0  0  0  0  0  0  0  0  0
  -13.1618   -5.4270    9.3429 N   0  0  0  0  0  0  0  0  0  0  0  0
   -7.2924   -8.4135    8.2337 C   0  0  0  0  0  0  0  0  0  0  0  0
  -11.0700   -7.3894   13.3089 N   0  0  0  0  0  0  0  0  0  0  0  0
   -8.5261   -7.7234    8.3045 C   0  0  0  0  0  0  0  0  0  0  0  0
   -9.1015   -7.1792    7.1254 C   0  0  0  0  0  0  0  0  0  0  0  0
   -8.4437   -7.3280    5.8735 C   0  0  0  0  0  0  0  0  0  0  0  0
   -7.1917   -8.0100    5.8070 C   0  0  0  0  0  0  0  0  0  0  0  0
   -6.6221   -8.5555    6.9901 C   0  0  0  0  0  0  0  0  0  0  0  0
  -11.2186   -8.7786   13.5227 C   0  0  0  0  0  0  0  0  0  0  0  0
  -10.7088   -9.5154   12.4295 C   0  0  0  0  0  0  0  0  0  0  0  0
   -9.5910   -8.7300   10.2621 C   0  0  0  0  0  0  0  0  0  0  0  0
   -9.1680   -7.5795    9.5425 C   0  0  0  0  0  0  0  0  0  0  0  0
   -9.3908   -6.2834   10.0836 C   0  0  0  0  0  0  0  0  0  0  0  0
  -10.0333   -6.1392   11.3430 C   0  0  0  0  0  0  0  0  0  0  0  0
  -10.4452   -7.2991   12.0709 C   0  0  0  0  0  0  0  0  0  0  0  0
  -10.2262   -8.5822   11.5369 C   0  0  0  0  0  0  0  0  0  0  0  0
  1  6  1  0  0  0  0
  2  4  1  0  0  0  0
  3  7  1  0  0  0  0
  4  5  1  0  0  0  0
  6  2  1  0  0  0  0
  7  8  1  0  0  0  0
  8  9  1  0  0  0  0
  9 10  1  0  0  0  0
 10 11  1  0  0  0  0
 10 12  1  0  0  0  0
 11 13  1  0  0  0  0
 13 15  1  0  0  0  0
 14 12  1  0  0  0  0
 15 14  1  0  0  0  0
 16 18  2  0  0  0  0
 16 22  1  0  0  0  0
 17 23  1  0  0  0  0
 17 29  1  0  0  0  0
 18 19  1  0  0  0  0
 18 26  1  0  0  0  0
 19 20  2  0  0  0  0
 20  3  1  0  0  0  0
 20 21  1  0  0  0  0
 21  5  1  0  0  0  0
 21 22  2  0  0  0  0
 23 24  2  0  0  0  0
 24 30  1  0  0  0  0
 25 26  2  0  0  0  0
 25 30  1  0  0  0  0
 26 27  1  0  0  0  0
 27 28  2  0  0  0  0
 28 29  1  0  0  0  0
 29 30  2  0  0  0  0
M  END
>  <CHROM.1>
47.20732592,-178.19170164,-58.17281447,-70.13753142,83.61586950,-59.72562117
140.36354475,-126.07532922,-61.73563602,80.38467676,-110.48483272,-9.28538042
-7.39083559,7.84253997,-0.49730612,-0.82168964,2.05515810

>  <Name>
1uts_lig

>  <RI>
0

>  <Rbt.Current_Directory>
/home/itssahil/PROJECTS/Mol_Feturizer/New_Systems/rnas/1uts

>  <Rbt.Executable>
rbdock ($Id: //depot/dev/client3/rdock/2013.1/src/exe/rbdock.cxx#4 $)

>  <Rbt.Library>
libRbt.so (2013.1, Build901 2013/11/27)

>  <Rbt.Parameter_File>
/export/apps/rDock/src/rDock_2013.1_src/data/scripts/dock_solv.prm

>  <Rbt.Receptor>
prm/blind_docking_100.prm

>  <SCORE>
-29.2649

>  <SCORE.INTER>
-33.318

>  <SCORE.INTER.CONST>
1

>  <SCORE.INTER.POLAR>
-1.76076

>  <SCORE.INTER.ROT>
10

>  <SCORE.INTER.SOLV>
10.2492

>  <SCORE.INTER.VDW>
-30.0259

>  <SCORE.INTER.norm>
-1.1106

>  <SCORE.INTRA>
3.66693

>  <SCORE.INTRA.DIHEDRAL>
0.9833

>  <SCORE.INTRA.DIHEDRAL.0>
18.0451

>  <SCORE.INTRA.POLAR>
0.196815

>  <SCORE.INTRA.POLAR.0>
-0.196815

>  <SCORE.INTRA.REPUL>
0

>  <SCORE.INTRA.REPUL.0>
0

>  <SCORE.INTRA.SOLV>
-0.0188326

>  <SCORE.INTRA.SOLV.lig_0>
-14.7906

>  <SCORE.INTRA.VDW>
2.51553

>  <SCORE.INTRA.VDW.0>
-0.411701

>  <SCORE.INTRA.norm>
0.122231

>  <SCORE.RESTR>
0.386233

>  <SCORE.RESTR.CAVITY>
0.386233

>  <SCORE.RESTR.norm>
0.0128744

>  <SCORE.SYSTEM>
0

>  <SCORE.SYSTEM.CONST>
0

>  <SCORE.SYSTEM.DIHEDRAL>
0

>  <SCORE.SYSTEM.SOLV>
0

>  <SCORE.SYSTEM.norm>
0

>  <SCORE.heavy>
30

>  <SCORE.norm>
-0.975496

>  <RMSD>
18.322

$$$$
1uts_lig
 OpenBabel11021811413D
libRbt.so/2013.1/901 2013/11/27
 30 33  0  0  0  0  0  0  0  0999 V2000
  -11.3725   -6.8061   14.1119 N   0  0  0  0  0  0  0  0  0  0  0  0
   -9.3565   -7.0527   12.7290 C   0  0  0  0  0  0  0  0  0  0  0  0
  -10.8372   -6.5344    7.9092 C   0  0  0  0  0  0  0  0  0  0  0  0
   -8.8204   -7.6971   11.4474 C   0  0  0  0  0  0  0  0  0  0  0  0
   -9.1799   -6.8851   10.3199 O   0  0  0  0  0  0  0  0  0  0  0  0
  -10.7449   -7.6137   13.0416 C   0  0  0  0  0  0  0  0  0  0  0  0
  -11.5952   -6.7570    9.1614 N   0  0  0  0  0  0  0  0  0  0  0  0
  -12.6915   -5.7582    9.2676 C   0  0  0  0  0  0  0  0  0  0  0  0
  -12.6375   -5.0735   10.6365 C   0  0  0  0  0  0  0  0  0  0  0  0
  -12.1935   -3.6715   10.4689 N   0  0  0  0  0  0  0  0  0  0  0  0
  -13.0974   -2.9807    9.5047 C   0  0  0  0  0  0  0  0  0  0  0  0
  -10.7895   -3.6541    9.9695 C   0  0  0  0  0  0  0  0  0  0  0  0
  -12.6370   -1.5251    9.3251 C   0  0  0  0  0  0  0  0  0  0  0  0
  -10.3286   -2.1970    9.7857 C   0  0  0  0  0  0  0  0  0  0  0  0
  -11.2332   -1.5071    8.8245 N   0  0  0  0  0  0  0  0  0  0  0  0
   -7.1635   -8.9253    7.8697 C   0  0  0  0  0  0  0  0  0  0  0  0
   -6.1768  -11.5521    2.1203 N   0  0  0  0  0  0  0  0  0  0  0  0
   -7.9412   -8.7963    6.6942 C   0  0  0  0  0  0  0  0  0  0  0  0
   -9.1308   -8.0204    6.7141 C   0  0  0  0  0  0  0  0  0  0  0  0
   -9.5414   -7.3703    7.9101 C   0  0  0  0  0  0  0  0  0  0  0  0
   -8.7643   -7.5150    9.0986 C   0  0  0  0  0  0  0  0  0  0  0  0
   -7.5728   -8.2904    9.0719 C   0  0  0  0  0  0  0  0  0  0  0  0
   -5.2395  -12.3870    2.7699 C   0  0  0  0  0  0  0  0  0  0  0  0
   -5.1954  -12.1143    4.1560 C   0  0  0  0  0  0  0  0  0  0  0  0
   -6.5223  -10.4417    5.5722 C   0  0  0  0  0  0  0  0  0  0  0  0
   -7.5308   -9.4414    5.5191 C   0  0  0  0  0  0  0  0  0  0  0  0
   -8.1272   -9.1016    4.2736 C   0  0  0  0  0  0  0  0  0  0  0  0
   -7.7168   -9.7628    3.0845 C   0  0  0  0  0  0  0  0  0  0  0  0
   -6.7119  -10.7785    3.1433 C   0  0  0  0  0  0  0  0  0  0  0  0
   -6.1203  -11.1156    4.3745 C   0  0  0  0  0  0  0  0  0  0  0  0
  1  6  1  0  0  0  0
  2  4  1  0  0  0  0
  3  7  1  0  0  0  0
  4  5  1  0  0  0  0
  6  2  1  0  0  0  0
  7  8  1  0  0  0  0
  8  9  1  0  0  0  0
  9 10  1  0  0  0  0
 10 11  1  0  0  0  0
 10 12  1  0  0  0  0
 11 13  1  0  0  0  0
 13 15  1  0  0  0  0
 14 12  1  0  0  0  0
 15 14  1  0  0  0  0
 16 18  2  0  0  0  0
 16 22  1  0  0  0  0
 17 23  1  0  0  0  0
 17 29  1  0  0  0  0
 18 19  1  0  0  0  0
 18 26  1  0  0  0  0
 19 20  2  0  0  0  0
 20  3  1  0  0  0  0
 20 21  1  0  0  0  0
 21  5  1  0  0  0  0
 21 22  2  0  0  0  0
 23 24  2  0  0  0  0
 24 30  1  0  0  0  0
 25 26  2  0  0  0  0
 25 30  1  0  0  0  0
 26 27  1  0  0  0  0
 27 28  2  0  0  0  0
 28 29  1  0  0  0  0
 29 30  2  0  0  0  0
M  END
>  <CHROM.1>
101.19548448,91.91821534,168.99346606,-176.19350878,-168.77974904,-128.92790015
109.38189381,55.66254304,13.69398030,139.33590290,146.19584126,-9.35406347
-7.23720811,8.12533001,-2.68047290,1.00850398,-1.30237772

>  <Name>
1uts_lig

>  <RI>
0

>  <Rbt.Current_Directory>
/home/itssahil/PROJECTS/Mol_Feturizer/New_Systems/rnas/1uts

>  <Rbt.Executable>
rbdock ($Id: //depot/dev/client3/rdock/2013.1/src/exe/rbdock.cxx#4 $)

>  <Rbt.Library>
libRbt.so (2013.1, Build901 2013/11/27)

>  <Rbt.Parameter_File>
/export/apps/rDock/src/rDock_2013.1_src/data/scripts/dock_solv.prm

>  <Rbt.Receptor>
prm/blind_docking_80.prm

>  <SCORE>
-31.0745

>  <SCORE.INTER>
-34.7953

>  <SCORE.INTER.CONST>
1

>  <SCORE.INTER.POLAR>
-3.38371

>  <SCORE.INTER.ROT>
10

>  <SCORE.INTER.SOLV>
8.01938

>  <SCORE.INTER.VDW>
-24.8576

>  <SCORE.INTER.norm>
-1.15984

>  <SCORE.INTRA>
3.47346

>  <SCORE.INTRA.DIHEDRAL>
-0.359285

>  <SCORE.INTRA.DIHEDRAL.0>
18.0451

>  <SCORE.INTRA.POLAR>
-0.555972

>  <SCORE.INTRA.POLAR.0>
-0.196815

>  <SCORE.INTRA.REPUL>
0

>  <SCORE.INTRA.REPUL.0>
0

>  <SCORE.INTRA.SOLV>
0.132375

>  <SCORE.INTRA.SOLV.lig_0>
-14.7906

>  <SCORE.INTRA.VDW>
5.47722

>  <SCORE.INTRA.VDW.0>
-0.411701

>  <SCORE.INTRA.norm>
0.115782

>  <SCORE.RESTR>
0.247276

>  <SCORE.RESTR.CAVITY>
0.247276

>  <SCORE.RESTR.norm>
0.00824253

>  <SCORE.SYSTEM>
0

>  <SCORE.SYSTEM.CONST>
0

>  <SCORE.SYSTEM.DIHEDRAL>
0

>  <SCORE.SYSTEM.SOLV>
0

>  <SCORE.SYSTEM.norm>
0

>  <SCORE.heavy>
30

>  <SCORE.norm>
-1.03582

>  <RMSD>
18.337

$$$$
1uts_lig
 OpenBabel11021811413D
libRbt.so/2013.1/901 2013/11/27
 30 33  0  0  0  0  0  0  0  0999 V2000
  -10.9670   -8.9883   12.6058 N   0  0  0  0  0  0  0  0  0  0  0  0
   -9.0320   -7.4880   12.4006 C   0  0  0  0  0  0  0  0  0  0  0  0
  -11.6401   -7.5185    7.7609 C   0  0  0  0  0  0  0  0  0  0  0  0
   -9.5669   -6.5339   11.3288 C   0  0  0  0  0  0  0  0  0  0  0  0
  -10.4209   -7.2574   10.4305 O   0  0  0  0  0  0  0  0  0  0  0  0
  -10.1824   -7.9428   13.3006 C   0  0  0  0  0  0  0  0  0  0  0  0
  -11.6884   -6.0412    7.6755 N   0  0  0  0  0  0  0  0  0  0  0  0
  -12.6085   -5.5092    8.7154 C   0  0  0  0  0  0  0  0  0  0  0  0
  -12.8703   -4.0215    8.4631 C   0  0  0  0  0  0  0  0  0  0  0  0
  -11.5968   -3.2735    8.5622 N   0  0  0  0  0  0  0  0  0  0  0  0
  -10.8580   -3.7183    9.7788 C   0  0  0  0  0  0  0  0  0  0  0  0
  -11.8857   -1.8133    8.6340 C   0  0  0  0  0  0  0  0  0  0  0  0
   -9.5363   -2.9407    9.8872 C   0  0  0  0  0  0  0  0  0  0  0  0
  -10.5631   -1.0338    8.7463 C   0  0  0  0  0  0  0  0  0  0  0  0
   -9.8247   -1.4802    9.9602 N   0  0  0  0  0  0  0  0  0  0  0  0
   -7.5580   -8.8842    8.5895 C   0  0  0  0  0  0  0  0  0  0  0  0
   -5.2598  -11.5742    3.1643 N   0  0  0  0  0  0  0  0  0  0  0  0
   -8.1134   -9.0442    7.2975 C   0  0  0  0  0  0  0  0  0  0  0  0
   -9.4369   -8.5999    7.0359 C   0  0  0  0  0  0  0  0  0  0  0  0
  -10.2047   -7.9920    8.0669 C   0  0  0  0  0  0  0  0  0  0  0  0
   -9.6485   -7.8464    9.3732 C   0  0  0  0  0  0  0  0  0  0  0  0
   -8.3221   -8.2902    9.6284 C   0  0  0  0  0  0  0  0  0  0  0  0
   -6.2605  -12.5057    2.8056 C   0  0  0  0  0  0  0  0  0  0  0  0
   -7.4006  -12.3646    3.6289 C   0  0  0  0  0  0  0  0  0  0  0  0
   -7.8872  -10.7317    5.5423 C   0  0  0  0  0  0  0  0  0  0  0  0
   -7.3509   -9.6458    6.2865 C   0  0  0  0  0  0  0  0  0  0  0  0
   -6.0432   -9.1667    5.9991 C   0  0  0  0  0  0  0  0  0  0  0  0
   -5.2749   -9.7714    4.9678 C   0  0  0  0  0  0  0  0  0  0  0  0
   -5.8225  -10.8546    4.2116 C   0  0  0  0  0  0  0  0  0  0  0  0
   -7.1158  -11.3303    4.4949 C   0  0  0  0  0  0  0  0  0  0  0  0
  1  6  1  0  0  0  0
  2  4  1  0  0  0  0
  3  7  1  0  0  0  0
  4  5  1  0  0  0  0
  6  2  1  0  0  0  0
  7  8  1  0  0  0  0
  8  9  1  0  0  0  0
  9 10  1  0  0  0  0
 10 11  1  0  0  0  0
 10 12  1  0  0  0  0
 11 13  1  0  0  0  0
 13 15  1  0  0  0  0
 14 12  1  0  0  0  0
 15 14  1  0  0  0  0
 16 18  2  0  0  0  0
 16 22  1  0  0  0  0
 17 23  1  0  0  0  0
 17 29  1  0  0  0  0
 18 19  1  0  0  0  0
 18 26  1  0  0  0  0
 19 20  2  0  0  0  0
 20  3  1  0  0  0  0
 20 21  1  0  0  0  0
 21  5  1  0  0  0  0
 21 22  2  0  0  0  0
 23 24  2  0  0  0  0
 24 30  1  0  0  0  0
 25 26  2  0  0  0  0
 25 30  1  0  0  0  0
 26 27  1  0  0  0  0
 27 28  2  0  0  0  0
 28 29  1  0  0  0  0
 29 30  2  0  0  0  0
M  END
>  <CHROM.1>
-20.46541643,-67.51063248,-119.13846423,-87.19009641,78.00258332,-169.22016588
-61.95349457,-45.96922492,128.17833719,-106.47624543,-147.26545399,-9.26128065
-7.33601172,8.09580145,3.11304588,1.10363331,-0.89410011

>  <Name>
1uts_lig

>  <RI>
0

>  <Rbt.Current_Directory>
/home/itssahil/PROJECTS/Mol_Feturizer/New_Systems/rnas/1uts

>  <Rbt.Executable>
rbdock ($Id: //depot/dev/client3/rdock/2013.1/src/exe/rbdock.cxx#4 $)

>  <Rbt.Library>
libRbt.so (2013.1, Build901 2013/11/27)

>  <Rbt.Parameter_File>
/export/apps/rDock/src/rDock_2013.1_src/data/scripts/dock_solv.prm

>  <Rbt.Receptor>
prm/blind_docking_40.prm

>  <SCORE>
-13.0356

>  <SCORE.INTER>
-21.7727

>  <SCORE.INTER.CONST>
1

>  <SCORE.INTER.POLAR>
-1.44552

>  <SCORE.INTER.ROT>
10

>  <SCORE.INTER.SOLV>
9.17929

>  <SCORE.INTER.VDW>
-23.0231

>  <SCORE.INTER.norm>
-0.725756

>  <SCORE.INTRA>
3.66742

>  <SCORE.INTRA.DIHEDRAL>
-1.54919

>  <SCORE.INTRA.DIHEDRAL.0>
18.0451

>  <SCORE.INTRA.POLAR>
-0.19828

>  <SCORE.INTRA.POLAR.0>
-0.196815

>  <SCORE.INTRA.REPUL>
0

>  <SCORE.INTRA.REPUL.0>
0

>  <SCORE.INTRA.SOLV>
0.493734

>  <SCORE.INTRA.SOLV.lig_0>
-14.7906

>  <SCORE.INTRA.VDW>
4.8693

>  <SCORE.INTRA.VDW.0>
-0.411701

>  <SCORE.INTRA.norm>
0.122247

>  <SCORE.RESTR>
5.06965

>  <SCORE.RESTR.CAVITY>
5.06965

>  <SCORE.RESTR.norm>
0.168988

>  <SCORE.SYSTEM>
0

>  <SCORE.SYSTEM.CONST>
0

>  <SCORE.SYSTEM.DIHEDRAL>
0

>  <SCORE.SYSTEM.SOLV>
0

>  <SCORE.SYSTEM.norm>
0

>  <SCORE.heavy>
30

>  <SCORE.norm>
-0.434521

>  <RMSD>
18.338

$$$$
1uts_lig
 OpenBabel11021811413D
libRbt.so/2013.1/901 2013/11/27
 30 33  0  0  0  0  0  0  0  0999 V2000
   -9.3752   -5.9056   14.5780 N   0  0  0  0  0  0  0  0  0  0  0  0
   -9.6821   -7.6786   12.9047 C   0  0  0  0  0  0  0  0  0  0  0  0
  -10.7950   -6.6469    7.9907 C   0  0  0  0  0  0  0  0  0  0  0  0
  -10.1162   -7.9335   11.4584 C   0  0  0  0  0  0  0  0  0  0  0  0
   -9.4562   -6.9993   10.5915 O   0  0  0  0  0  0  0  0  0  0  0  0
  -10.0461   -6.2472   13.3034 C   0  0  0  0  0  0  0  0  0  0  0  0
  -11.9050   -7.1513    8.8308 N   0  0  0  0  0  0  0  0  0  0  0  0
  -12.3001   -6.1103    9.8164 C   0  0  0  0  0  0  0  0  0  0  0  0
  -13.0012   -4.9548    9.0961 C   0  0  0  0  0  0  0  0  0  0  0  0
  -12.3391   -3.6793    9.4505 N   0  0  0  0  0  0  0  0  0  0  0  0
  -13.0694   -2.5499    8.8063 C   0  0  0  0  0  0  0  0  0  0  0  0
  -10.9224   -3.7131    8.9892 C   0  0  0  0  0  0  0  0  0  0  0  0
  -12.3821   -1.2235    9.1691 C   0  0  0  0  0  0  0  0  0  0  0  0
  -10.2342   -2.3839    9.3486 C   0  0  0  0  0  0  0  0  0  0  0  0
  -10.9656   -1.2562    8.7069 N   0  0  0  0  0  0  0  0  0  0  0  0
   -7.2443   -9.1765    8.4470 C   0  0  0  0  0  0  0  0  0  0  0  0
   -6.0061  -11.8628    2.6851 N   0  0  0  0  0  0  0  0  0  0  0  0
   -7.8687   -9.0478    7.1833 C   0  0  0  0  0  0  0  0  0  0  0  0
   -9.0192   -8.2269    7.0425 C   0  0  0  0  0  0  0  0  0  0  0  0
   -9.5441   -7.5313    8.1662 C   0  0  0  0  0  0  0  0  0  0  0  0
   -8.9225   -7.6754    9.4430 C   0  0  0  0  0  0  0  0  0  0  0  0
   -7.7692   -8.4961    9.5772 C   0  0  0  0  0  0  0  0  0  0  0  0
   -7.2418  -12.4420    2.3172 C   0  0  0  0  0  0  0  0  0  0  0  0
   -8.2631  -12.0698    3.2205 C   0  0  0  0  0  0  0  0  0  0  0  0
   -8.1953  -10.5564    5.2867 C   0  0  0  0  0  0  0  0  0  0  0  0
   -7.3464   -9.7378    6.0803 C   0  0  0  0  0  0  0  0  0  0  0  0
   -5.9689   -9.6146    5.7493 C   0  0  0  0  0  0  0  0  0  0  0  0
   -5.4427  -10.3072    4.6255 C   0  0  0  0  0  0  0  0  0  0  0  0
   -6.3022  -11.1189    3.8209 C   0  0  0  0  0  0  0  0  0  0  0  0
   -7.6651  -11.2425    4.1472 C   0  0  0  0  0  0  0  0  0  0  0  0
  1  6  1  0  0  0  0
  2  4  1  0  0  0  0
  3  7  1  0  0  0  0
  4  5  1  0  0  0  0
  6  2  1  0  0  0  0
  7  8  1  0  0  0  0
  8  9  1  0  0  0  0
  9 10  1  0  0  0  0
 10 11  1  0  0  0  0
 10 12  1  0  0  0  0
 11 13  1  0  0  0  0
 13 15  1  0  0  0  0
 14 12  1  0  0  0  0
 15 14  1  0  0  0  0
 16 18  2  0  0  0  0
 16 22  1  0  0  0  0
 17 23  1  0  0  0  0
 17 29  1  0  0  0  0
 18 19  1  0  0  0  0
 18 26  1  0  0  0  0
 19 20  2  0  0  0  0
 20  3  1  0  0  0  0
 20 21  1  0  0  0  0
 21  5  1  0  0  0  0
 21 22  2  0  0  0  0
 23 24  2  0  0  0  0
 24 30  1  0  0  0  0
 25 26  2  0  0  0  0
 25 30  1  0  0  0  0
 26 27  1  0  0  0  0
 27 28  2  0  0  0  0
 28 29  1  0  0  0  0
 29 30  2  0  0  0  0
M  END
>  <CHROM.1>
-174.22396003,59.35718606,118.73672296,133.89479828,-167.83636334,70.58207623
-126.71559316,-176.96882303,127.91098716,118.33751910,106.50897542,-9.40878730
-7.29883695,8.17670409,-2.48581489,1.00609257,-1.58280001

>  <Name>
1uts_lig

>  <RI>
0

>  <Rbt.Current_Directory>
/home/itssahil/PROJECTS/Mol_Feturizer/New_Systems/rnas/1uts

>  <Rbt.Executable>
rbdock ($Id: //depot/dev/client3/rdock/2013.1/src/exe/rbdock.cxx#4 $)

>  <Rbt.Library>
libRbt.so (2013.1, Build901 2013/11/27)

>  <Rbt.Parameter_File>
/export/apps/rDock/src/rDock_2013.1_src/data/scripts/dock_solv.prm

>  <Rbt.Receptor>
prm/blind_docking_80.prm

>  <SCORE>
-16.9306

>  <SCORE.INTER>
-22.4966

>  <SCORE.INTER.CONST>
1

>  <SCORE.INTER.POLAR>
-1.72103

>  <SCORE.INTER.ROT>
10

>  <SCORE.INTER.SOLV>
6.93676

>  <SCORE.INTER.VDW>
-21.8399

>  <SCORE.INTER.norm>
-0.749886

>  <SCORE.INTRA>
5.2535

>  <SCORE.INTRA.DIHEDRAL>
6.22598

>  <SCORE.INTRA.DIHEDRAL.0>
18.0451

>  <SCORE.INTRA.POLAR>
0.196815

>  <SCORE.INTRA.POLAR.0>
-0.196815

>  <SCORE.INTRA.REPUL>
0

>  <SCORE.INTRA.REPUL.0>
0

>  <SCORE.INTRA.SOLV>
-0.0967535

>  <SCORE.INTRA.SOLV.lig_0>
-14.7906

>  <SCORE.INTRA.VDW>
1.51971

>  <SCORE.INTRA.VDW.0>
-0.411701

>  <SCORE.INTRA.norm>
0.175117

>  <SCORE.RESTR>
0.312479

>  <SCORE.RESTR.CAVITY>
0.312479

>  <SCORE.RESTR.norm>
0.010416

>  <SCORE.SYSTEM>
0

>  <SCORE.SYSTEM.CONST>
0

>  <SCORE.SYSTEM.DIHEDRAL>
0

>  <SCORE.SYSTEM.SOLV>
0

>  <SCORE.SYSTEM.norm>
0

>  <SCORE.heavy>
30

>  <SCORE.norm>
-0.564354

>  <RMSD>
18.346

$$$$
1uts_lig
 OpenBabel11021811413D
libRbt.so/2013.1/901 2013/11/27
 30 33  0  0  0  0  0  0  0  0999 V2000
   -5.2386  -12.3073    2.5980 N   0  0  0  0  0  0  0  0  0  0  0  0
   -5.0532  -11.4080    4.8770 C   0  0  0  0  0  0  0  0  0  0  0  0
   -7.6943   -7.1507    4.8011 C   0  0  0  0  0  0  0  0  0  0  0  0
   -6.2655  -10.5560    5.2641 C   0  0  0  0  0  0  0  0  0  0  0  0
   -5.8216   -9.2529    5.6698 O   0  0  0  0  0  0  0  0  0  0  0  0
   -5.5118  -12.5926    4.0246 C   0  0  0  0  0  0  0  0  0  0  0  0
   -8.9103   -6.3341    4.5852 N   0  0  0  0  0  0  0  0  0  0  0  0
  -10.1173   -7.1966    4.6860 C   0  0  0  0  0  0  0  0  0  0  0  0
  -11.3674   -6.3234    4.8279 C   0  0  0  0  0  0  0  0  0  0  0  0
  -11.4990   -5.8761    6.2327 N   0  0  0  0  0  0  0  0  0  0  0  0
  -12.0402   -6.9948    7.0569 C   0  0  0  0  0  0  0  0  0  0  0  0
  -12.4096   -4.6979    6.2929 C   0  0  0  0  0  0  0  0  0  0  0  0
  -12.1819   -6.5327    8.5162 C   0  0  0  0  0  0  0  0  0  0  0  0
  -12.5553   -4.2366    7.7542 C   0  0  0  0  0  0  0  0  0  0  0  0
  -13.0936   -5.3551    8.5773 N   0  0  0  0  0  0  0  0  0  0  0  0
   -7.5932   -8.6017    8.9362 C   0  0  0  0  0  0  0  0  0  0  0  0
  -11.9139   -5.1517   12.3132 N   0  0  0  0  0  0  0  0  0  0  0  0
   -8.4960   -7.5773    8.5634 C   0  0  0  0  0  0  0  0  0  0  0  0
   -8.5232   -7.1115    7.2218 C   0  0  0  0  0  0  0  0  0  0  0  0
   -7.6487   -7.6729    6.2513 C   0  0  0  0  0  0  0  0  0  0  0  0
   -6.7278   -8.6944    6.6331 C   0  0  0  0  0  0  0  0  0  0  0  0
   -6.7072   -9.1589    7.9767 C   0  0  0  0  0  0  0  0  0  0  0  0
  -11.6388   -3.8113   11.9592 C   0  0  0  0  0  0  0  0  0  0  0  0
  -10.6822   -3.7492   10.9206 C   0  0  0  0  0  0  0  0  0  0  0  0
   -9.4767   -5.6166    9.6465 C   0  0  0  0  0  0  0  0  0  0  0  0
   -9.3541   -7.0276    9.5261 C   0  0  0  0  0  0  0  0  0  0  0  0
  -10.1083   -7.8799   10.3787 C   0  0  0  0  0  0  0  0  0  0  0  0
  -10.9848   -7.3215   11.3480 C   0  0  0  0  0  0  0  0  0  0  0  0
  -11.1164   -5.9017   11.4573 C   0  0  0  0  0  0  0  0  0  0  0  0
  -10.3706   -5.0569   10.6150 C   0  0  0  0  0  0  0  0  0  0  0  0
  1  6  1  0  0  0  0
  2  4  1  0  0  0  0
  3  7  1  0  0  0  0
  4  5  1  0  0  0  0
  6  2  1  0  0  0  0
  7  8  1  0  0  0  0
  8  9  1  0  0  0  0
  9 10  1  0  0  0  0
 10 11  1  0  0  0  0
 10 12  1  0  0  0  0
 11 13  1  0  0  0  0
 13 15  1  0  0  0  0
 14 12  1  0  0  0  0
 15 14  1  0  0  0  0
 16 18  2  0  0  0  0
 16 22  1  0  0  0  0
 17 23  1  0  0  0  0
 17 29  1  0  0  0  0
 18 19  1  0  0  0  0
 18 26  1  0  0  0  0
 19 20  2  0  0  0  0
 20  3  1  0  0  0  0
 20 21  1  0  0  0  0
 21  5  1  0  0  0  0
 21 22  2  0  0  0  0
 23 24  2  0  0  0  0
 24 30  1  0  0  0  0
 25 26  2  0  0  0  0
 25 30  1  0  0  0  0
 26 27  1  0  0  0  0
 27 28  2  0  0  0  0
 28 29  1  0  0  0  0
 29 30  2  0  0  0  0
M  END
>  <CHROM.1>
-28.50440590,-161.35874775,-66.39106175,-150.57324231,101.11471892,165.40012657
-80.18460559,-77.66250235,132.03887001,-13.68569162,-104.22243685,-9.36164052
-7.27855212,7.52546635,0.68582722,0.70260532,-1.67943892

>  <Name>
1uts_lig

>  <RI>
0

>  <Rbt.Current_Directory>
/home/itssahil/PROJECTS/Mol_Feturizer/New_Systems/rnas/1uts

>  <Rbt.Executable>
rbdock ($Id: //depot/dev/client3/rdock/2013.1/src/exe/rbdock.cxx#4 $)

>  <Rbt.Library>
libRbt.so (2013.1, Build901 2013/11/27)

>  <Rbt.Parameter_File>
/export/apps/rDock/src/rDock_2013.1_src/data/scripts/dock_solv.prm

>  <Rbt.Receptor>
prm/blind_docking_100.prm

>  <SCORE>
-21.4696

>  <SCORE.INTER>
-25.5337

>  <SCORE.INTER.CONST>
1

>  <SCORE.INTER.POLAR>
-2.56818

>  <SCORE.INTER.ROT>
10

>  <SCORE.INTER.SOLV>
6.98125

>  <SCORE.INTER.VDW>
-21.0556

>  <SCORE.INTER.norm>
-0.851122

>  <SCORE.INTRA>
1.46144

>  <SCORE.INTRA.DIHEDRAL>
3.52932

>  <SCORE.INTRA.DIHEDRAL.0>
18.0451

>  <SCORE.INTRA.POLAR>
0.196815

>  <SCORE.INTRA.POLAR.0>
-0.196815

>  <SCORE.INTRA.REPUL>
0

>  <SCORE.INTRA.REPUL.0>
0

>  <SCORE.INTRA.SOLV>
0.539527

>  <SCORE.INTRA.SOLV.lig_0>
-14.7906

>  <SCORE.INTRA.VDW>
-1.24215

>  <SCORE.INTRA.VDW.0>
-0.411701

>  <SCORE.INTRA.norm>
0.0487148

>  <SCORE.RESTR>
2.60267

>  <SCORE.RESTR.CAVITY>
2.60267

>  <SCORE.RESTR.norm>
0.0867556

>  <SCORE.SYSTEM>
0

>  <SCORE.SYSTEM.CONST>
0

>  <SCORE.SYSTEM.DIHEDRAL>
0

>  <SCORE.SYSTEM.SOLV>
0

>  <SCORE.SYSTEM.norm>
0

>  <SCORE.heavy>
30

>  <SCORE.norm>
-0.715652

>  <RMSD>
18.371

$$$$
1uts_lig
 OpenBabel11021811413D
libRbt.so/2013.1/901 2013/11/27
 30 33  0  0  0  0  0  0  0  0999 V2000
  -12.6121   -1.8409    8.1497 N   0  0  0  0  0  0  0  0  0  0  0  0
  -12.5401   -4.2915    8.3137 C   0  0  0  0  0  0  0  0  0  0  0  0
   -9.5410   -5.4209    7.9511 C   0  0  0  0  0  0  0  0  0  0  0  0
  -12.6444   -4.8559    6.8939 C   0  0  0  0  0  0  0  0  0  0  0  0
  -11.5641   -4.3461    6.0983 O   0  0  0  0  0  0  0  0  0  0  0  0
  -13.4214   -3.0470    8.4355 C   0  0  0  0  0  0  0  0  0  0  0  0
  -10.2440   -6.2831    8.9281 N   0  0  0  0  0  0  0  0  0  0  0  0
  -10.1028   -5.7113   10.2934 C   0  0  0  0  0  0  0  0  0  0  0  0
   -8.8386   -6.2638   10.9581 C   0  0  0  0  0  0  0  0  0  0  0  0
   -9.1799   -7.4778   11.7331 N   0  0  0  0  0  0  0  0  0  0  0  0
   -9.9674   -8.4064   10.8720 C   0  0  0  0  0  0  0  0  0  0  0  0
   -9.9683   -7.0902   12.9369 C   0  0  0  0  0  0  0  0  0  0  0  0
  -10.3271   -9.6670   11.6749 C   0  0  0  0  0  0  0  0  0  0  0  0
  -10.3323   -8.3521   13.7397 C   0  0  0  0  0  0  0  0  0  0  0  0
  -11.1167   -9.2801   12.8783 N   0  0  0  0  0  0  0  0  0  0  0  0
  -10.0365   -6.9965    3.8907 C   0  0  0  0  0  0  0  0  0  0  0  0
   -5.6580  -11.7177    3.1195 N   0  0  0  0  0  0  0  0  0  0  0  0
   -9.0404   -7.5286    4.7438 C   0  0  0  0  0  0  0  0  0  0  0  0
   -8.8849   -7.0131    6.0582 C   0  0  0  0  0  0  0  0  0  0  0  0
   -9.7287   -5.9664    6.5210 C   0  0  0  0  0  0  0  0  0  0  0  0
  -10.7218   -5.4201    5.6535 C   0  0  0  0  0  0  0  0  0  0  0  0
  -10.8749   -5.9422    4.3399 C   0  0  0  0  0  0  0  0  0  0  0  0
   -5.0379  -11.9370    4.3706 C   0  0  0  0  0  0  0  0  0  0  0  0
   -5.5269  -11.0342    5.3419 C   0  0  0  0  0  0  0  0  0  0  0  0
   -7.2973   -9.1905    5.1674 C   0  0  0  0  0  0  0  0  0  0  0  0
   -8.2112   -8.5595    4.2801 C   0  0  0  0  0  0  0  0  0  0  0  0
   -8.2876   -8.9804    2.9239 C   0  0  0  0  0  0  0  0  0  0  0  0
   -7.4530  -10.0319    2.4573 C   0  0  0  0  0  0  0  0  0  0  0  0
   -6.5446  -10.6740    3.3559 C   0  0  0  0  0  0  0  0  0  0  0  0
   -6.4672  -10.2585    4.6978 C   0  0  0  0  0  0  0  0  0  0  0  0
  1  6  1  0  0  0  0
  2  4  1  0  0  0  0
  3  7  1  0  0  0  0
  4  5  1  0  0  0  0
  6  2  1  0  0  0  0
  7  8  1  0  0  0  0
  8  9  1  0  0  0  0
  9 10  1  0  0  0  0
 10 11  1  0  0  0  0
 10 12  1  0  0  0  0
 11 13  1  0  0  0  0
 13 15  1  0  0  0  0
 14 12  1  0  0  0  0
 15 14  1  0  0  0  0
 16 18  2  0  0  0  0
 16 22  1  0  0  0  0
 17 23  1  0  0  0  0
 17 29  1  0  0  0  0
 18 19  1  0  0  0  0
 18 26  1  0  0  0  0
 19 20  2  0  0  0  0
 20  3  1  0  0  0  0
 20 21  1  0  0  0  0
 21  5  1  0  0  0  0
 21 22  2  0  0  0  0
 23 24  2  0  0  0  0
 24 30  1  0  0  0  0
 25 26  2  0  0  0  0
 25 30  1  0  0  0  0
 26 27  1  0  0  0  0
 27 28  2  0  0  0  0
 28 29  1  0  0  0  0
 29 30  2  0  0  0  0
M  END
>  <CHROM.1>
52.69340236,95.02612833,-177.55378128,117.44573564,-93.05314701,-89.39837113
-91.99414850,50.03169275,-173.82963691,-82.77190561,-81.09561486,-9.49957448
-7.36785302,7.38805562,2.49417129,-0.92491003,1.80727754

>  <Name>
1uts_lig

>  <RI>
0

>  <Rbt.Current_Directory>
/home/itssahil/PROJECTS/Mol_Feturizer/New_Systems/rnas/1uts

>  <Rbt.Executable>
rbdock ($Id: //depot/dev/client3/rdock/2013.1/src/exe/rbdock.cxx#4 $)

>  <Rbt.Library>
libRbt.so (2013.1, Build901 2013/11/27)

>  <Rbt.Parameter_File>
/export/apps/rDock/src/rDock_2013.1_src/data/scripts/dock_solv.prm

>  <Rbt.Receptor>
prm/blind_docking_20.prm

>  <SCORE>
-5.50366

>  <SCORE.INTER>
-20.1062

>  <SCORE.INTER.CONST>
1

>  <SCORE.INTER.POLAR>
-1.63853

>  <SCORE.INTER.ROT>
10

>  <SCORE.INTER.SOLV>
6.9428

>  <SCORE.INTER.VDW>
-20.5233

>  <SCORE.INTER.norm>
-0.670205

>  <SCORE.INTRA>
10.5458

>  <SCORE.INTRA.DIHEDRAL>
6.43267

>  <SCORE.INTRA.DIHEDRAL.0>
18.0451

>  <SCORE.INTRA.POLAR>
0.196815

>  <SCORE.INTRA.POLAR.0>
-0.196815

>  <SCORE.INTRA.REPUL>
0

>  <SCORE.INTRA.REPUL.0>
0

>  <SCORE.INTRA.SOLV>
0.0698242

>  <SCORE.INTRA.SOLV.lig_0>
-14.7906

>  <SCORE.INTRA.VDW>
6.62538

>  <SCORE.INTRA.VDW.0>
-0.411701

>  <SCORE.INTRA.norm>
0.351527

>  <SCORE.RESTR>
4.0567

>  <SCORE.RESTR.CAVITY>
4.0567

>  <SCORE.RESTR.norm>
0.135223

>  <SCORE.SYSTEM>
0

>  <SCORE.SYSTEM.CONST>
0

>  <SCORE.SYSTEM.DIHEDRAL>
0

>  <SCORE.SYSTEM.SOLV>
0

>  <SCORE.SYSTEM.norm>
0

>  <SCORE.heavy>
30

>  <SCORE.norm>
-0.183455

>  <RMSD>
18.377

$$$$
1uts_lig
 OpenBabel11021811413D
libRbt.so/2013.1/901 2013/11/27
 30 33  0  0  0  0  0  0  0  0999 V2000
  -10.5949   -2.4684    8.5707 N   0  0  0  0  0  0  0  0  0  0  0  0
  -11.8152   -4.5313    8.0295 C   0  0  0  0  0  0  0  0  0  0  0  0
   -9.0057   -5.5253    8.0363 C   0  0  0  0  0  0  0  0  0  0  0  0
  -11.9529   -4.5257    6.5043 C   0  0  0  0  0  0  0  0  0  0  0  0
  -10.6607   -4.3327    5.9103 O   0  0  0  0  0  0  0  0  0  0  0  0
  -11.9333   -3.1009    8.5590 C   0  0  0  0  0  0  0  0  0  0  0  0
   -9.6571   -6.3083    9.1108 N   0  0  0  0  0  0  0  0  0  0  0  0
   -8.9509   -7.6054    9.2839 C   0  0  0  0  0  0  0  0  0  0  0  0
   -9.8589   -8.5952   10.0195 C   0  0  0  0  0  0  0  0  0  0  0  0
   -9.8609   -8.2806   11.4659 N   0  0  0  0  0  0  0  0  0  0  0  0
  -10.4695   -9.4167   12.2160 C   0  0  0  0  0  0  0  0  0  0  0  0
  -10.6361   -7.0292   11.6983 C   0  0  0  0  0  0  0  0  0  0  0  0
  -10.4768   -9.0918   13.7186 C   0  0  0  0  0  0  0  0  0  0  0  0
  -10.6473   -6.7049   13.2030 C   0  0  0  0  0  0  0  0  0  0  0  0
  -11.2531   -7.8410   13.9518 N   0  0  0  0  0  0  0  0  0  0  0  0
   -9.5793   -7.4965    4.1633 C   0  0  0  0  0  0  0  0  0  0  0  0
   -6.0369  -12.9170    4.1793 N   0  0  0  0  0  0  0  0  0  0  0  0
   -8.7616   -8.0944    5.1518 C   0  0  0  0  0  0  0  0  0  0  0  0
   -8.5796   -7.4500    6.4045 C   0  0  0  0  0  0  0  0  0  0  0  0
   -9.2186   -6.2079    6.6700 C   0  0  0  0  0  0  0  0  0  0  0  0
  -10.0296   -5.5988    5.6658 C   0  0  0  0  0  0  0  0  0  0  0  0
  -10.2107   -6.2499    4.4148 C   0  0  0  0  0  0  0  0  0  0  0  0
   -4.7405  -12.4529    4.4985 C   0  0  0  0  0  0  0  0  0  0  0  0
   -4.7672  -11.0860    4.8568 C   0  0  0  0  0  0  0  0  0  0  0  0
   -6.7252   -9.4426    5.0294 C   0  0  0  0  0  0  0  0  0  0  0  0
   -8.1336   -9.3185    4.8823 C   0  0  0  0  0  0  0  0  0  0  0  0
   -8.9046  -10.4394    4.4684 C   0  0  0  0  0  0  0  0  0  0  0  0
   -8.2679  -11.6823    4.2045 C   0  0  0  0  0  0  0  0  0  0  0  0
   -6.8526  -11.8077    4.3667 C   0  0  0  0  0  0  0  0  0  0  0  0
   -6.0882  -10.6997    4.7756 C   0  0  0  0  0  0  0  0  0  0  0  0
  1  6  1  0  0  0  0
  2  4  1  0  0  0  0
  3  7  1  0  0  0  0
  4  5  1  0  0  0  0
  6  2  1  0  0  0  0
  7  8  1  0  0  0  0
  8  9  1  0  0  0  0
  9 10  1  0  0  0  0
 10 11  1  0  0  0  0
 10 12  1  0  0  0  0
 11 13  1  0  0  0  0
 13 15  1  0  0  0  0
 14 12  1  0  0  0  0
 15 14  1  0  0  0  0
 16 18  2  0  0  0  0
 16 22  1  0  0  0  0
 17 23  1  0  0  0  0
 17 29  1  0  0  0  0
 18 19  1  0  0  0  0
 18 26  1  0  0  0  0
 19 20  2  0  0  0  0
 20  3  1  0  0  0  0
 20 21  1  0  0  0  0
 21  5  1  0  0  0  0
 21 22  2  0  0  0  0
 23 24  2  0  0  0  0
 24 30  1  0  0  0  0
 25 26  2  0  0  0  0
 25 30  1  0  0  0  0
 26 27  1  0  0  0  0
 27 28  2  0  0  0  0
 28 29  1  0  0  0  0
 29 30  2  0  0  0  0
M  END
>  <CHROM.1>
-164.94804300,88.45570030,67.71832400,90.75369805,-88.47881244,-160.91480916
-77.97702992,-166.66580983,125.25843724,-68.50712400,-89.07911829,-9.23758615
-7.77083856,7.63027905,2.71702054,-1.04768851,2.01067921

>  <Name>
1uts_lig

>  <RI>
0

>  <Rbt.Current_Directory>
/home/itssahil/PROJECTS/Mol_Feturizer/New_Systems/rnas/1uts

>  <Rbt.Executable>
rbdock ($Id: //depot/dev/client3/rdock/2013.1/src/exe/rbdock.cxx#4 $)

>  <Rbt.Library>
libRbt.so (2013.1, Build901 2013/11/27)

>  <Rbt.Parameter_File>
/export/apps/rDock/src/rDock_2013.1_src/data/scripts/dock_solv.prm

>  <Rbt.Receptor>
prm/blind_docking_60.prm

>  <SCORE>
-3.05319

>  <SCORE.INTER>
-13.4789

>  <SCORE.INTER.CONST>
1

>  <SCORE.INTER.POLAR>
-1.27991

>  <SCORE.INTER.ROT>
10

>  <SCORE.INTER.SOLV>
8.38144

>  <SCORE.INTER.VDW>
-17.78

>  <SCORE.INTER.norm>
-0.449298

>  <SCORE.INTRA>
4.84504

>  <SCORE.INTRA.DIHEDRAL>
2.5185

>  <SCORE.INTRA.DIHEDRAL.0>
18.0451

>  <SCORE.INTRA.POLAR>
0.196815

>  <SCORE.INTRA.POLAR.0>
-0.196815

>  <SCORE.INTRA.REPUL>
0

>  <SCORE.INTRA.REPUL.0>
0

>  <SCORE.INTRA.SOLV>
0.359897

>  <SCORE.INTRA.SOLV.lig_0>
-14.7906

>  <SCORE.INTRA.VDW>
2.73667

>  <SCORE.INTRA.VDW.0>
-0.411701

>  <SCORE.INTRA.norm>
0.161501

>  <SCORE.RESTR>
5.5807

>  <SCORE.RESTR.CAVITY>
5.5807

>  <SCORE.RESTR.norm>
0.186023

>  <SCORE.SYSTEM>
0

>  <SCORE.SYSTEM.CONST>
0

>  <SCORE.SYSTEM.DIHEDRAL>
0

>  <SCORE.SYSTEM.SOLV>
0

>  <SCORE.SYSTEM.norm>
0

>  <SCORE.heavy>
30

>  <SCORE.norm>
-0.101773

>  <RMSD>
18.378

$$$$
1uts_lig
 OpenBabel11021811413D
libRbt.so/2013.1/901 2013/11/27
 30 33  0  0  0  0  0  0  0  0999 V2000
   -6.9805   -8.1461    2.6123 N   0  0  0  0  0  0  0  0  0  0  0  0
   -6.8850  -10.5580    3.0715 C   0  0  0  0  0  0  0  0  0  0  0  0
   -9.4020   -7.5815    5.1373 C   0  0  0  0  0  0  0  0  0  0  0  0
   -7.0556  -10.3936    4.5845 C   0  0  0  0  0  0  0  0  0  0  0  0
   -6.8385   -9.0206    4.9417 O   0  0  0  0  0  0  0  0  0  0  0  0
   -7.6423   -9.4435    2.3472 C   0  0  0  0  0  0  0  0  0  0  0  0
   -8.8289   -6.3188    4.6182 N   0  0  0  0  0  0  0  0  0  0  0  0
   -9.0221   -5.2336    5.6161 C   0  0  0  0  0  0  0  0  0  0  0  0
  -10.4986   -4.8298    5.6628 C   0  0  0  0  0  0  0  0  0  0  0  0
  -11.0445   -5.1131    7.0092 N   0  0  0  0  0  0  0  0  0  0  0  0
  -12.5098   -4.8365    7.0146 C   0  0  0  0  0  0  0  0  0  0  0  0
  -10.3502   -4.2588    8.0137 C   0  0  0  0  0  0  0  0  0  0  0  0
  -13.0796   -5.1260    8.4127 C   0  0  0  0  0  0  0  0  0  0  0  0
  -10.9225   -4.5452    9.4136 C   0  0  0  0  0  0  0  0  0  0  0  0
  -12.3865   -4.2710    9.4176 N   0  0  0  0  0  0  0  0  0  0  0  0
   -7.2085   -8.9049    8.6942 C   0  0  0  0  0  0  0  0  0  0  0  0
  -10.4979   -7.3357   13.9889 N   0  0  0  0  0  0  0  0  0  0  0  0
   -8.4283   -8.2003    8.8317 C   0  0  0  0  0  0  0  0  0  0  0  0
   -9.1338   -7.7739    7.6750 C   0  0  0  0  0  0  0  0  0  0  0  0
   -8.6203   -8.0553    6.3792 C   0  0  0  0  0  0  0  0  0  0  0  0
   -7.3818   -8.7516    6.2431 C   0  0  0  0  0  0  0  0  0  0  0  0
   -6.6816   -9.1787    7.4045 C   0  0  0  0  0  0  0  0  0  0  0  0
  -11.1770   -8.5689   14.1139 C   0  0  0  0  0  0  0  0  0  0  0  0
  -11.0291   -9.3479   12.9439 C   0  0  0  0  0  0  0  0  0  0  0  0
   -9.7510   -8.8766   10.7741 C   0  0  0  0  0  0  0  0  0  0  0  0
   -8.9277   -7.9253   10.1125 C   0  0  0  0  0  0  0  0  0  0  0  0
   -8.6060   -6.6979   10.7548 C   0  0  0  0  0  0  0  0  0  0  0  0
   -9.1053   -6.4243   12.0569 C   0  0  0  0  0  0  0  0  0  0  0  0
   -9.9218   -7.3894   12.7254 C   0  0  0  0  0  0  0  0  0  0  0  0
  -10.2416   -8.6039   12.0913 C   0  0  0  0  0  0  0  0  0  0  0  0
  1  6  1  0  0  0  0
  2  4  1  0  0  0  0
  3  7  1  0  0  0  0
  4  5  1  0  0  0  0
  6  2  1  0  0  0  0
  7  8  1  0  0  0  0
  8  9  1  0  0  0  0
  9 10  1  0  0  0  0
 10 11  1  0  0  0  0
 10 12  1  0  0  0  0
 11 13  1  0  0  0  0
 13 15  1  0  0  0  0
 14 12  1  0  0  0  0
 15 14  1  0  0  0  0
 16 18  2  0  0  0  0
 16 22  1  0  0  0  0
 17 23  1  0  0  0  0
 17 29  1  0  0  0  0
 18 19  1  0  0  0  0
 18 26  1  0  0  0  0
 19 20  2  0  0  0  0
 20  3  1  0  0  0  0
 20 21  1  0  0  0  0
 21  5  1  0  0  0  0
 21 22  2  0  0  0  0
 23 24  2  0  0  0  0
 24 30  1  0  0  0  0
 25 26  2  0  0  0  0
 25 30  1  0  0  0  0
 26 27  1  0  0  0  0
 27 28  2  0  0  0  0
 28 29  1  0  0  0  0
 29 30  2  0  0  0  0
M  END
>  <CHROM.1>
65.94878632,-46.21847411,-65.38236426,162.26350679,68.04494731,-72.06177880
117.23313076,-174.85827273,-87.29231767,98.44017300,-103.09787762,-9.34419104
-7.33522433,7.94993347,0.96945729,0.88933734,-1.26981196

>  <Name>
1uts_lig

>  <RI>
0

>  <Rbt.Current_Directory>
/home/itssahil/PROJECTS/Mol_Feturizer/New_Systems/rnas/1uts

>  <Rbt.Executable>
rbdock ($Id: //depot/dev/client3/rdock/2013.1/src/exe/rbdock.cxx#4 $)

>  <Rbt.Library>
libRbt.so (2013.1, Build901 2013/11/27)

>  <Rbt.Parameter_File>
/export/apps/rDock/src/rDock_2013.1_src/data/scripts/dock_solv.prm

>  <Rbt.Receptor>
prm/blind_docking_100.prm

>  <SCORE>
-19.7786

>  <SCORE.INTER>
-23.1011

>  <SCORE.INTER.CONST>
1

>  <SCORE.INTER.POLAR>
-1.00632

>  <SCORE.INTER.ROT>
10

>  <SCORE.INTER.SOLV>
7.61182

>  <SCORE.INTER.VDW>
-24.8503

>  <SCORE.INTER.norm>
-0.770036

>  <SCORE.INTRA>
-1.29989

>  <SCORE.INTRA.DIHEDRAL>
0.456819

>  <SCORE.INTRA.DIHEDRAL.0>
18.0451

>  <SCORE.INTRA.POLAR>
-0.491937

>  <SCORE.INTRA.POLAR.0>
-0.196815

>  <SCORE.INTRA.REPUL>
0

>  <SCORE.INTRA.REPUL.0>
0

>  <SCORE.INTRA.SOLV>
0.907693

>  <SCORE.INTRA.SOLV.lig_0>
-14.7906

>  <SCORE.INTRA.VDW>
-0.309558

>  <SCORE.INTRA.VDW.0>
-0.411701

>  <SCORE.INTRA.norm>
-0.0433296

>  <SCORE.RESTR>
4.62231

>  <SCORE.RESTR.CAVITY>
4.62231

>  <SCORE.RESTR.norm>
0.154077

>  <SCORE.SYSTEM>
0

>  <SCORE.SYSTEM.CONST>
0

>  <SCORE.SYSTEM.DIHEDRAL>
0

>  <SCORE.SYSTEM.SOLV>
0

>  <SCORE.SYSTEM.norm>
0

>  <SCORE.heavy>
30

>  <SCORE.norm>
-0.659288

>  <RMSD>
18.402

$$$$
1uts_lig
 OpenBabel11021811413D
libRbt.so/2013.1/901 2013/11/27
 30 33  0  0  0  0  0  0  0  0999 V2000
  -12.4843   -2.0702    8.0894 N   0  0  0  0  0  0  0  0  0  0  0  0
  -12.9294   -4.2903    9.0435 C   0  0  0  0  0  0  0  0  0  0  0  0
   -9.1198   -4.2733    6.9127 C   0  0  0  0  0  0  0  0  0  0  0  0
  -12.8248   -5.3064    7.9025 C   0  0  0  0  0  0  0  0  0  0  0  0
  -12.0257   -4.7549    6.8455 O   0  0  0  0  0  0  0  0  0  0  0  0
  -13.5557   -2.9964    8.5203 C   0  0  0  0  0  0  0  0  0  0  0  0
   -9.1147   -4.3369    8.3919 N   0  0  0  0  0  0  0  0  0  0  0  0
   -9.6237   -5.6609    8.8380 C   0  0  0  0  0  0  0  0  0  0  0  0
   -9.7036   -5.6965   10.3670 C   0  0  0  0  0  0  0  0  0  0  0  0
  -10.3734   -6.9447   10.7963 N   0  0  0  0  0  0  0  0  0  0  0  0
  -10.8835   -6.7764   12.1875 C   0  0  0  0  0  0  0  0  0  0  0  0
   -9.4029   -8.0738   10.7313 C   0  0  0  0  0  0  0  0  0  0  0  0
  -11.5765   -8.0725   12.6383 C   0  0  0  0  0  0  0  0  0  0  0  0
  -10.0947   -9.3715   11.1860 C   0  0  0  0  0  0  0  0  0  0  0  0
  -10.6060   -9.2019   12.5746 N   0  0  0  0  0  0  0  0  0  0  0  0
  -10.8241   -7.9390    5.2179 C   0  0  0  0  0  0  0  0  0  0  0  0
   -5.9587  -11.6954    3.2235 N   0  0  0  0  0  0  0  0  0  0  0  0
   -9.4231   -7.7380    5.2147 C   0  0  0  0  0  0  0  0  0  0  0  0
   -8.8774   -6.5477    5.7651 C   0  0  0  0  0  0  0  0  0  0  0  0
   -9.7338   -5.5586    6.3221 C   0  0  0  0  0  0  0  0  0  0  0  0
  -11.1473   -5.7560    6.3095 C   0  0  0  0  0  0  0  0  0  0  0  0
  -11.6876   -6.9509    5.7600 C   0  0  0  0  0  0  0  0  0  0  0  0
   -5.1038  -11.7610    4.3472 C   0  0  0  0  0  0  0  0  0  0  0  0
   -5.5040  -10.8390    5.3409 C   0  0  0  0  0  0  0  0  0  0  0  0
   -7.4643   -9.1904    5.3974 C   0  0  0  0  0  0  0  0  0  0  0  0
   -8.5851   -8.7170    4.6625 C   0  0  0  0  0  0  0  0  0  0  0  0
   -8.8587   -9.2430    3.3699 C   0  0  0  0  0  0  0  0  0  0  0  0
   -8.0139  -10.2420    2.8151 C   0  0  0  0  0  0  0  0  0  0  0  0
   -6.8951  -10.7262    3.5627 C   0  0  0  0  0  0  0  0  0  0  0  0
   -6.6225  -10.2065    4.8414 C   0  0  0  0  0  0  0  0  0  0  0  0
  1  6  1  0  0  0  0
  2  4  1  0  0  0  0
  3  7  1  0  0  0  0
  4  5  1  0  0  0  0
  6  2  1  0  0  0  0
  7  8  1  0  0  0  0
  8  9  1  0  0  0  0
  9 10  1  0  0  0  0
 10 11  1  0  0  0  0
 10 12  1  0  0  0  0
 11 13  1  0  0  0  0
 13 15  1  0  0  0  0
 14 12  1  0  0  0  0
 15 14  1  0  0  0  0
 16 18  2  0  0  0  0
 16 22  1  0  0  0  0
 17 23  1  0  0  0  0
 17 29  1  0  0  0  0
 18 19  1  0  0  0  0
 18 26  1  0  0  0  0
 19 20  2  0  0  0  0
 20  3  1  0  0  0  0
 20 21  1  0  0  0  0
 21  5  1  0  0  0  0
 21 22  2  0  0  0  0
 23 24  2  0  0  0  0
 24 30  1  0  0  0  0
 25 26  2  0  0  0  0
 25 30  1  0  0  0  0
 26 27  1  0  0  0  0
 27 28  2  0  0  0  0
 28 29  1  0  0  0  0
 29 30  2  0  0  0  0
M  END
>  <CHROM.1>
-179.86458098,58.84990375,3.65992410,138.97286193,-92.42830811,-176.40848528
172.69102220,-160.04970894,-130.11845744,-103.35670692,-121.45929446,-9.71239692
-7.26083229,7.38366032,2.70768111,-0.95869132,1.88732301

>  <Name>
1uts_lig

>  <RI>
0

>  <Rbt.Current_Directory>
/home/itssahil/PROJECTS/Mol_Feturizer/New_Systems/rnas/1uts

>  <Rbt.Executable>
rbdock ($Id: //depot/dev/client3/rdock/2013.1/src/exe/rbdock.cxx#4 $)

>  <Rbt.Library>
libRbt.so (2013.1, Build901 2013/11/27)

>  <Rbt.Parameter_File>
/export/apps/rDock/src/rDock_2013.1_src/data/scripts/dock_solv.prm

>  <Rbt.Receptor>
prm/blind_docking_20.prm

>  <SCORE>
-11.8074

>  <SCORE.INTER>
-20.1559

>  <SCORE.INTER.CONST>
1

>  <SCORE.INTER.POLAR>
-1.96074

>  <SCORE.INTER.ROT>
10

>  <SCORE.INTER.SOLV>
6.60263

>  <SCORE.INTER.VDW>
-19.369

>  <SCORE.INTER.norm>
-0.671864

>  <SCORE.INTRA>
5.57

>  <SCORE.INTRA.DIHEDRAL>
2.29731

>  <SCORE.INTRA.DIHEDRAL.0>
18.0451

>  <SCORE.INTRA.POLAR>
-0.068213

>  <SCORE.INTRA.POLAR.0>
-0.196815

>  <SCORE.INTRA.REPUL>
0

>  <SCORE.INTRA.REPUL.0>
0

>  <SCORE.INTRA.SOLV>
0.246064

>  <SCORE.INTRA.SOLV.lig_0>
-14.7906

>  <SCORE.INTRA.VDW>
4.53024

>  <SCORE.INTRA.VDW.0>
-0.411701

>  <SCORE.INTRA.norm>
0.185667

>  <SCORE.RESTR>
2.7785

>  <SCORE.RESTR.CAVITY>
2.7785

>  <SCORE.RESTR.norm>
0.0926168

>  <SCORE.SYSTEM>
0

>  <SCORE.SYSTEM.CONST>
0

>  <SCORE.SYSTEM.DIHEDRAL>
0

>  <SCORE.SYSTEM.SOLV>
0

>  <SCORE.SYSTEM.norm>
0

>  <SCORE.heavy>
30

>  <SCORE.norm>
-0.39358

>  <RMSD>
18.417

$$$$
1uts_lig
 OpenBabel11021811413D
libRbt.so/2013.1/901 2013/11/27
 30 33  0  0  0  0  0  0  0  0999 V2000
   -9.8456   -6.8022   14.2522 N   0  0  0  0  0  0  0  0  0  0  0  0
  -10.2347   -7.6622   11.9837 C   0  0  0  0  0  0  0  0  0  0  0  0
  -10.8754   -8.0393    8.2089 C   0  0  0  0  0  0  0  0  0  0  0  0
   -9.5961   -8.4603   10.8433 C   0  0  0  0  0  0  0  0  0  0  0  0
   -8.6797   -7.6185   10.1280 O   0  0  0  0  0  0  0  0  0  0  0  0
   -9.1844   -7.3756   13.0583 C   0  0  0  0  0  0  0  0  0  0  0  0
  -11.1700   -6.6614    7.7545 N   0  0  0  0  0  0  0  0  0  0  0  0
  -10.9981   -5.7130    8.8868 C   0  0  0  0  0  0  0  0  0  0  0  0
  -11.4658   -4.3162    8.4679 C   0  0  0  0  0  0  0  0  0  0  0  0
  -11.1184   -3.3422    9.5270 N   0  0  0  0  0  0  0  0  0  0  0  0
  -12.1615   -2.2778    9.5784 C   0  0  0  0  0  0  0  0  0  0  0  0
   -9.7834   -2.7484    9.2336 C   0  0  0  0  0  0  0  0  0  0  0  0
  -11.8020   -1.2620   10.6748 C   0  0  0  0  0  0  0  0  0  0  0  0
   -9.4239   -1.7283   10.3289 C   0  0  0  0  0  0  0  0  0  0  0  0
  -10.4675   -0.6669   10.3813 N   0  0  0  0  0  0  0  0  0  0  0  0
   -6.7315   -9.1107    7.2628 C   0  0  0  0  0  0  0  0  0  0  0  0
   -6.4689  -11.8948    1.4759 N   0  0  0  0  0  0  0  0  0  0  0  0
   -7.7603   -9.3457    6.3196 C   0  0  0  0  0  0  0  0  0  0  0  0
   -9.1011   -8.9966    6.6328 C   0  0  0  0  0  0  0  0  0  0  0  0
   -9.4127   -8.4089    7.8895 C   0  0  0  0  0  0  0  0  0  0  0  0
   -8.3762   -8.1878    8.8455 C   0  0  0  0  0  0  0  0  0  0  0  0
   -7.0355   -8.5365    8.5253 C   0  0  0  0  0  0  0  0  0  0  0  0
   -5.9958  -13.1036    2.0350 C   0  0  0  0  0  0  0  0  0  0  0  0
   -6.0547  -13.0644    3.4467 C   0  0  0  0  0  0  0  0  0  0  0  0
   -6.8812  -11.2305    5.0334 C   0  0  0  0  0  0  0  0  0  0  0  0
   -7.4456   -9.9269    5.0832 C   0  0  0  0  0  0  0  0  0  0  0  0
   -7.6967   -9.2166    3.8771 C   0  0  0  0  0  0  0  0  0  0  0  0
   -7.3858   -9.8106    2.6240 C   0  0  0  0  0  0  0  0  0  0  0  0
   -6.8310  -11.1277    2.5767 C   0  0  0  0  0  0  0  0  0  0  0  0
   -6.5813  -11.8317    3.7689 C   0  0  0  0  0  0  0  0  0  0  0  0
  1  6  1  0  0  0  0
  2  4  1  0  0  0  0
  3  7  1  0  0  0  0
  4  5  1  0  0  0  0
  6  2  1  0  0  0  0
  7  8  1  0  0  0  0
  8  9  1  0  0  0  0
  9 10  1  0  0  0  0
 10 11  1  0  0  0  0
 10 12  1  0  0  0  0
 11 13  1  0  0  0  0
 13 15  1  0  0  0  0
 14 12  1  0  0  0  0
 15 14  1  0  0  0  0
 16 18  2  0  0  0  0
 16 22  1  0  0  0  0
 17 23  1  0  0  0  0
 17 29  1  0  0  0  0
 18 19  1  0  0  0  0
 18 26  1  0  0  0  0
 19 20  2  0  0  0  0
 20  3  1  0  0  0  0
 20 21  1  0  0  0  0
 21  5  1  0  0  0  0
 21 22  2  0  0  0  0
 23 24  2  0  0  0  0
 24 30  1  0  0  0  0
 25 26  2  0  0  0  0
 25 30  1  0  0  0  0
 26 27  1  0  0  0  0
 27 28  2  0  0  0  0
 28 29  1  0  0  0  0
 29 30  2  0  0  0  0
M  END
>  <CHROM.1>
-62.79100477,-69.65407040,-95.43758616,-162.74420010,-170.85747149,-173.11321929
-172.13886031,-146.86267748,61.46729881,-89.04619948,60.61802426,-8.97991908
-7.44880471,7.79440037,-2.72982436,1.18545755,-1.25760676

>  <Name>
1uts_lig

>  <RI>
0

>  <Rbt.Current_Directory>
/home/itssahil/PROJECTS/Mol_Feturizer/New_Systems/rnas/1uts

>  <Rbt.Executable>
rbdock ($Id: //depot/dev/client3/rdock/2013.1/src/exe/rbdock.cxx#4 $)

>  <Rbt.Library>
libRbt.so (2013.1, Build901 2013/11/27)

>  <Rbt.Parameter_File>
/export/apps/rDock/src/rDock_2013.1_src/data/scripts/dock_solv.prm

>  <Rbt.Receptor>
prm/blind_docking_80.prm

>  <SCORE>
-20.3579

>  <SCORE.INTER>
-19.9024

>  <SCORE.INTER.CONST>
1

>  <SCORE.INTER.POLAR>
-0.996753

>  <SCORE.INTER.ROT>
10

>  <SCORE.INTER.SOLV>
5.4829

>  <SCORE.INTER.VDW>
-22.0401

>  <SCORE.INTER.norm>
-0.663414

>  <SCORE.INTRA>
-1.14297

>  <SCORE.INTRA.DIHEDRAL>
-3.23315

>  <SCORE.INTRA.DIHEDRAL.0>
18.0451

>  <SCORE.INTRA.POLAR>
0.196815

>  <SCORE.INTRA.POLAR.0>
-0.196815

>  <SCORE.INTRA.REPUL>
0

>  <SCORE.INTRA.REPUL.0>
0

>  <SCORE.INTRA.SOLV>
-0.47908

>  <SCORE.INTRA.SOLV.lig_0>
-14.7906

>  <SCORE.INTRA.VDW>
0.0439754

>  <SCORE.INTRA.VDW.0>
-0.411701

>  <SCORE.INTRA.norm>
-0.0380989

>  <SCORE.RESTR>
0.687461

>  <SCORE.RESTR.CAVITY>
0.687461

>  <SCORE.RESTR.norm>
0.0229154

>  <SCORE.SYSTEM>
0

>  <SCORE.SYSTEM.CONST>
0

>  <SCORE.SYSTEM.DIHEDRAL>
0

>  <SCORE.SYSTEM.SOLV>
0

>  <SCORE.SYSTEM.norm>
0

>  <SCORE.heavy>
30

>  <SCORE.norm>
-0.678597

>  <RMSD>
18.418

$$$$
1uts_lig
 OpenBabel11021811413D
libRbt.so/2013.1/901 2013/11/27
 30 33  0  0  0  0  0  0  0  0999 V2000
   -6.6940  -12.0930    4.7378 N   0  0  0  0  0  0  0  0  0  0  0  0
   -6.7994  -10.0700    3.3473 C   0  0  0  0  0  0  0  0  0  0  0  0
   -8.4652   -6.1511    4.7125 C   0  0  0  0  0  0  0  0  0  0  0  0
   -7.0132   -8.5553    3.4209 C   0  0  0  0  0  0  0  0  0  0  0  0
   -6.1917   -8.0086    4.4630 O   0  0  0  0  0  0  0  0  0  0  0  0
   -7.2199  -10.7108    4.6712 C   0  0  0  0  0  0  0  0  0  0  0  0
   -9.5871   -5.2891    5.1489 N   0  0  0  0  0  0  0  0  0  0  0  0
  -10.8604   -6.0545    5.0864 C   0  0  0  0  0  0  0  0  0  0  0  0
  -11.9849   -5.2428    5.7361 C   0  0  0  0  0  0  0  0  0  0  0  0
  -11.8746   -5.3395    7.2090 N   0  0  0  0  0  0  0  0  0  0  0  0
  -12.5305   -6.5968    7.6703 C   0  0  0  0  0  0  0  0  0  0  0  0
  -12.5272   -4.1535    7.8323 C   0  0  0  0  0  0  0  0  0  0  0  0
  -12.4213   -6.6988    9.2003 C   0  0  0  0  0  0  0  0  0  0  0  0
  -12.4217   -4.2564    9.3645 C   0  0  0  0  0  0  0  0  0  0  0  0
  -13.0749   -5.5135    9.8243 N   0  0  0  0  0  0  0  0  0  0  0  0
   -7.2383   -8.7701    8.0065 C   0  0  0  0  0  0  0  0  0  0  0  0
  -11.0763   -7.4650   13.0605 N   0  0  0  0  0  0  0  0  0  0  0  0
   -8.3251   -7.8788    8.1730 C   0  0  0  0  0  0  0  0  0  0  0  0
   -8.7172   -7.0326    7.1017 C   0  0  0  0  0  0  0  0  0  0  0  0
   -8.0234   -7.0800    5.8614 C   0  0  0  0  0  0  0  0  0  0  0  0
   -6.9175   -7.9678    5.7011 C   0  0  0  0  0  0  0  0  0  0  0  0
   -6.5315   -8.8148    6.7759 C   0  0  0  0  0  0  0  0  0  0  0  0
  -11.0643   -6.0544   13.1490 C   0  0  0  0  0  0  0  0  0  0  0  0
  -10.3871   -5.4847   12.0470 C   0  0  0  0  0  0  0  0  0  0  0  0
   -9.2756   -6.5865   10.0186 C   0  0  0  0  0  0  0  0  0  0  0  0
   -9.0034   -7.8366    9.3993 C   0  0  0  0  0  0  0  0  0  0  0  0
   -9.4262   -9.0431   10.0220 C   0  0  0  0  0  0  0  0  0  0  0  0
  -10.1218   -8.9985   11.2605 C   0  0  0  0  0  0  0  0  0  0  0  0
  -10.4063   -7.7385   11.8741 C   0  0  0  0  0  0  0  0  0  0  0  0
   -9.9883   -6.5439   11.2598 C   0  0  0  0  0  0  0  0  0  0  0  0
  1  6  1  0  0  0  0
  2  4  1  0  0  0  0
  3  7  1  0  0  0  0
  4  5  1  0  0  0  0
  6  2  1  0  0  0  0
  7  8  1  0  0  0  0
  8  9  1  0  0  0  0
  9 10  1  0  0  0  0
 10 11  1  0  0  0  0
 10 12  1  0  0  0  0
 11 13  1  0  0  0  0
 13 15  1  0  0  0  0
 14 12  1  0  0  0  0
 15 14  1  0  0  0  0
 16 18  2  0  0  0  0
 16 22  1  0  0  0  0
 17 23  1  0  0  0  0
 17 29  1  0  0  0  0
 18 19  1  0  0  0  0
 18 26  1  0  0  0  0
 19 20  2  0  0  0  0
 20  3  1  0  0  0  0
 20 21  1  0  0  0  0
 21  5  1  0  0  0  0
 21 22  2  0  0  0  0
 23 24  2  0  0  0  0
 24 30  1  0  0  0  0
 25 26  2  0  0  0  0
 25 30  1  0  0  0  0
 26 27  1  0  0  0  0
 27 28  2  0  0  0  0
 28 29  1  0  0  0  0
 29 30  2  0  0  0  0
M  END
>  <CHROM.1>
-179.22530792,61.63575133,-80.16925483,-91.60261819,-165.29522170,171.37556226
-77.99672793,-83.38439516,132.14033443,1.67588544,-68.14863501,-9.55952414
-7.27193758,7.78170263,-0.69658259,-0.78819380,1.82256718

>  <Name>
1uts_lig

>  <RI>
0

>  <Rbt.Current_Directory>
/home/itssahil/PROJECTS/Mol_Feturizer/New_Systems/rnas/1uts

>  <Rbt.Executable>
rbdock ($Id: //depot/dev/client3/rdock/2013.1/src/exe/rbdock.cxx#4 $)

>  <Rbt.Library>
libRbt.so (2013.1, Build901 2013/11/27)

>  <Rbt.Parameter_File>
/export/apps/rDock/src/rDock_2013.1_src/data/scripts/dock_solv.prm

>  <Rbt.Receptor>
prm/blind_docking_100.prm

>  <SCORE>
-15.6941

>  <SCORE.INTER>
-16.1989

>  <SCORE.INTER.CONST>
1

>  <SCORE.INTER.POLAR>
0

>  <SCORE.INTER.ROT>
10

>  <SCORE.INTER.SOLV>
7.25325

>  <SCORE.INTER.VDW>
-23.4837

>  <SCORE.INTER.norm>
-0.539963

>  <SCORE.INTRA>
-0.915924

>  <SCORE.INTRA.DIHEDRAL>
-2.38743

>  <SCORE.INTRA.DIHEDRAL.0>
18.0451

>  <SCORE.INTRA.POLAR>
0.196815

>  <SCORE.INTRA.POLAR.0>
-0.196815

>  <SCORE.INTRA.REPUL>
0

>  <SCORE.INTRA.REPUL.0>
0

>  <SCORE.INTRA.SOLV>
0.404604

>  <SCORE.INTRA.SOLV.lig_0>
-14.7906

>  <SCORE.INTRA.VDW>
-0.593684

>  <SCORE.INTRA.VDW.0>
-0.411701

>  <SCORE.INTRA.norm>
-0.0305308

>  <SCORE.RESTR>
1.42069

>  <SCORE.RESTR.CAVITY>
1.42069

>  <SCORE.RESTR.norm>
0.0473563

>  <SCORE.SYSTEM>
0

>  <SCORE.SYSTEM.CONST>
0

>  <SCORE.SYSTEM.DIHEDRAL>
0

>  <SCORE.SYSTEM.SOLV>
0

>  <SCORE.SYSTEM.norm>
0

>  <SCORE.heavy>
30

>  <SCORE.norm>
-0.523138

>  <RMSD>
18.427

$$$$
1uts_lig
 OpenBabel11021811413D
libRbt.so/2013.1/901 2013/11/27
 30 33  0  0  0  0  0  0  0  0999 V2000
   -4.9460  -12.1311    3.3507 N   0  0  0  0  0  0  0  0  0  0  0  0
   -6.7212  -11.3026    4.8337 C   0  0  0  0  0  0  0  0  0  0  0  0
   -9.3956   -8.2642    4.4954 C   0  0  0  0  0  0  0  0  0  0  0  0
   -7.0153  -10.0914    3.9439 C   0  0  0  0  0  0  0  0  0  0  0  0
   -6.5205   -8.9030    4.5785 O   0  0  0  0  0  0  0  0  0  0  0  0
   -5.2399  -11.6689    4.7260 C   0  0  0  0  0  0  0  0  0  0  0  0
   -9.9350   -6.8974    4.3140 N   0  0  0  0  0  0  0  0  0  0  0  0
  -11.0906   -6.6898    5.2264 C   0  0  0  0  0  0  0  0  0  0  0  0
  -11.5606   -5.2345    5.1440 C   0  0  0  0  0  0  0  0  0  0  0  0
  -11.2519   -4.5443    6.4165 N   0  0  0  0  0  0  0  0  0  0  0  0
   -9.7897   -4.6474    6.6904 C   0  0  0  0  0  0  0  0  0  0  0  0
  -12.0333   -5.1704    7.5203 C   0  0  0  0  0  0  0  0  0  0  0  0
   -9.4659   -3.9349    8.0135 C   0  0  0  0  0  0  0  0  0  0  0  0
  -11.7070   -4.4601    8.8464 C   0  0  0  0  0  0  0  0  0  0  0  0
  -10.2461   -4.5614    9.1181 N   0  0  0  0  0  0  0  0  0  0  0  0
   -7.1843   -8.5158    8.2719 C   0  0  0  0  0  0  0  0  0  0  0  0
  -10.9475   -7.1661   13.2629 N   0  0  0  0  0  0  0  0  0  0  0  0
   -8.5613   -8.1884    8.2740 C   0  0  0  0  0  0  0  0  0  0  0  0
   -9.2718   -8.1081    7.0467 C   0  0  0  0  0  0  0  0  0  0  0  0
   -8.6050   -8.3586    5.8160 C   0  0  0  0  0  0  0  0  0  0  0  0
   -7.2127   -8.6725    5.8150 C   0  0  0  0  0  0  0  0  0  0  0  0
   -6.5074   -8.7545    7.0468 C   0  0  0  0  0  0  0  0  0  0  0  0
   -9.7700   -7.2492   14.0403 C   0  0  0  0  0  0  0  0  0  0  0  0
   -8.6514   -7.5540   13.2319 C   0  0  0  0  0  0  0  0  0  0  0  0
   -8.4687   -7.9210   10.7029 C   0  0  0  0  0  0  0  0  0  0  0  0
   -9.2117   -7.9414    9.4912 C   0  0  0  0  0  0  0  0  0  0  0  0
  -10.6135   -7.7040    9.5152 C   0  0  0  0  0  0  0  0  0  0  0  0
  -11.2700   -7.4445   10.7487 C   0  0  0  0  0  0  0  0  0  0  0  0
  -10.5175   -7.4110   11.9643 C   0  0  0  0  0  0  0  0  0  0  0  0
   -9.1306   -7.6462   11.9426 C   0  0  0  0  0  0  0  0  0  0  0  0
  1  6  1  0  0  0  0
  2  4  1  0  0  0  0
  3  7  1  0  0  0  0
  4  5  1  0  0  0  0
  6  2  1  0  0  0  0
  7  8  1  0  0  0  0
  8  9  1  0  0  0  0
  9 10  1  0  0  0  0
 10 11  1  0  0  0  0
 10 12  1  0  0  0  0
 11 13  1  0  0  0  0
 13 15  1  0  0  0  0
 14 12  1  0  0  0  0
 15 14  1  0  0  0  0
 16 18  2  0  0  0  0
 16 22  1  0  0  0  0
 17 23  1  0  0  0  0
 17 29  1  0  0  0  0
 18 19  1  0  0  0  0
 18 26  1  0  0  0  0
 19 20  2  0  0  0  0
 20  3  1  0  0  0  0
 20 21  1  0  0  0  0
 21  5  1  0  0  0  0
 21 22  2  0  0  0  0
 23 24  2  0  0  0  0
 24 30  1  0  0  0  0
 25 26  2  0  0  0  0
 25 30  1  0  0  0  0
 26 27  1  0  0  0  0
 27 28  2  0  0  0  0
 28 29  1  0  0  0  0
 29 30  2  0  0  0  0
M  END
>  <CHROM.1>
-167.59528767,-75.98023446,-74.50638245,-63.39149669,-65.69268428,174.30682223
-110.99988407,56.87960057,4.73797331,60.85283074,-65.92650771,-9.08055821
-7.56170141,7.68687384,-0.82743561,-0.86225483,1.66401566

>  <Name>
1uts_lig

>  <RI>
0

>  <Rbt.Current_Directory>
/home/itssahil/PROJECTS/Mol_Feturizer/New_Systems/rnas/1uts

>  <Rbt.Executable>
rbdock ($Id: //depot/dev/client3/rdock/2013.1/src/exe/rbdock.cxx#4 $)

>  <Rbt.Library>
libRbt.so (2013.1, Build901 2013/11/27)

>  <Rbt.Parameter_File>
/export/apps/rDock/src/rDock_2013.1_src/data/scripts/dock_solv.prm

>  <Rbt.Receptor>
prm/blind_docking_20.prm

>  <SCORE>
-15.6307

>  <SCORE.INTER>
-22.2119

>  <SCORE.INTER.CONST>
1

>  <SCORE.INTER.POLAR>
-1.87125

>  <SCORE.INTER.ROT>
10

>  <SCORE.INTER.SOLV>
7.45185

>  <SCORE.INTER.VDW>
-21.321

>  <SCORE.INTER.norm>
-0.740396

>  <SCORE.INTRA>
2.60976

>  <SCORE.INTRA.DIHEDRAL>
-6.00832

>  <SCORE.INTRA.DIHEDRAL.0>
18.0451

>  <SCORE.INTRA.POLAR>
0.196815

>  <SCORE.INTRA.POLAR.0>
-0.196815

>  <SCORE.INTRA.REPUL>
0

>  <SCORE.INTRA.REPUL.0>
0

>  <SCORE.INTRA.SOLV>
0.269658

>  <SCORE.INTRA.SOLV.lig_0>
-14.7906

>  <SCORE.INTRA.VDW>
4.80992

>  <SCORE.INTRA.VDW.0>
-0.411701

>  <SCORE.INTRA.norm>
0.0869919

>  <SCORE.RESTR>
3.97139

>  <SCORE.RESTR.CAVITY>
3.97139

>  <SCORE.RESTR.norm>
0.13238

>  <SCORE.SYSTEM>
0

>  <SCORE.SYSTEM.CONST>
0

>  <SCORE.SYSTEM.DIHEDRAL>
0

>  <SCORE.SYSTEM.SOLV>
0

>  <SCORE.SYSTEM.norm>
0

>  <SCORE.heavy>
30

>  <SCORE.norm>
-0.521025

>  <RMSD>
18.433

$$$$
1uts_lig
 OpenBabel11021811413D
libRbt.so/2013.1/901 2013/11/27
 30 33  0  0  0  0  0  0  0  0999 V2000
   -6.1388   -7.7980    3.8118 N   0  0  0  0  0  0  0  0  0  0  0  0
   -5.4019   -9.8284    4.9829 C   0  0  0  0  0  0  0  0  0  0  0  0
  -10.6822   -9.6651    5.6738 C   0  0  0  0  0  0  0  0  0  0  0  0
   -6.7589  -10.4424    5.3388 C   0  0  0  0  0  0  0  0  0  0  0  0
   -7.7743   -9.4312    5.2606 O   0  0  0  0  0  0  0  0  0  0  0  0
   -5.4980   -8.3030    5.0470 C   0  0  0  0  0  0  0  0  0  0  0  0
  -11.4977   -8.5030    5.2534 N   0  0  0  0  0  0  0  0  0  0  0  0
  -12.4709   -8.1606    6.3242 C   0  0  0  0  0  0  0  0  0  0  0  0
  -12.6569   -6.6418    6.3884 C   0  0  0  0  0  0  0  0  0  0  0  0
  -11.6780   -6.0653    7.3373 N   0  0  0  0  0  0  0  0  0  0  0  0
  -12.1513   -4.7213    7.7771 C   0  0  0  0  0  0  0  0  0  0  0  0
  -10.3493   -5.9565    6.6712 C   0  0  0  0  0  0  0  0  0  0  0  0
  -11.1350   -4.1177    8.7600 C   0  0  0  0  0  0  0  0  0  0  0  0
   -9.3316   -5.3487    7.6533 C   0  0  0  0  0  0  0  0  0  0  0  0
   -9.8062   -4.0074    8.0940 N   0  0  0  0  0  0  0  0  0  0  0  0
   -7.9656   -8.5064    8.9129 C   0  0  0  0  0  0  0  0  0  0  0  0
  -11.4224   -7.1756   14.1850 N   0  0  0  0  0  0  0  0  0  0  0  0
   -9.3588   -8.5898    9.1482 C   0  0  0  0  0  0  0  0  0  0  0  0
  -10.2335   -8.9654    8.0941 C   0  0  0  0  0  0  0  0  0  0  0  0
   -9.7140   -9.2610    6.8039 C   0  0  0  0  0  0  0  0  0  0  0  0
   -8.3105   -9.1604    6.5645 C   0  0  0  0  0  0  0  0  0  0  0  0
   -7.4394   -8.7869    7.6244 C   0  0  0  0  0  0  0  0  0  0  0  0
  -11.4176   -5.7758   13.9892 C   0  0  0  0  0  0  0  0  0  0  0  0
  -10.9049   -5.4457   12.7141 C   0  0  0  0  0  0  0  0  0  0  0  0
  -10.0658   -6.9437   10.8125 C   0  0  0  0  0  0  0  0  0  0  0  0
   -9.8638   -8.2956   10.4226 C   0  0  0  0  0  0  0  0  0  0  0  0
  -10.1814   -9.3484   11.3242 C   0  0  0  0  0  0  0  0  0  0  0  0
  -10.7019   -9.0491   12.6122 C   0  0  0  0  0  0  0  0  0  0  0  0
  -10.9171   -7.6885   12.9964 C   0  0  0  0  0  0  0  0  0  0  0  0
  -10.6029   -6.6456   12.1059 C   0  0  0  0  0  0  0  0  0  0  0  0
  1  6  1  0  0  0  0
  2  4  1  0  0  0  0
  3  7  1  0  0  0  0
  4  5  1  0  0  0  0
  6  2  1  0  0  0  0
  7  8  1  0  0  0  0
  8  9  1  0  0  0  0
  9 10  1  0  0  0  0
 10 11  1  0  0  0  0
 10 12  1  0  0  0  0
 11 13  1  0  0  0  0
 13 15  1  0  0  0  0
 14 12  1  0  0  0  0
 15 14  1  0  0  0  0
 16 18  2  0  0  0  0
 16 22  1  0  0  0  0
 17 23  1  0  0  0  0
 17 29  1  0  0  0  0
 18 19  1  0  0  0  0
 18 26  1  0  0  0  0
 19 20  2  0  0  0  0
 20  3  1  0  0  0  0
 20 21  1  0  0  0  0
 21  5  1  0  0  0  0
 21 22  2  0  0  0  0
 23 24  2  0  0  0  0
 24 30  1  0  0  0  0
 25 26  2  0  0  0  0
 25 30  1  0  0  0  0
 26 27  1  0  0  0  0
 27 28  2  0  0  0  0
 28 29  1  0  0  0  0
 29 30  2  0  0  0  0
M  END
>  <CHROM.1>
77.08165389,15.74474608,-70.51656678,-113.38139353,-79.36692779,144.28656962
-90.38143452,-159.70070540,81.03616485,70.15734779,-124.75046388,-9.72555371
-7.58709414,8.28460711,-0.93246581,-0.75698457,1.73423440

>  <Name>
1uts_lig

>  <RI>
0

>  <Rbt.Current_Directory>
/home/itssahil/PROJECTS/Mol_Feturizer/New_Systems/rnas/1uts

>  <Rbt.Executable>
rbdock ($Id: //depot/dev/client3/rdock/2013.1/src/exe/rbdock.cxx#4 $)

>  <Rbt.Library>
libRbt.so (2013.1, Build901 2013/11/27)

>  <Rbt.Parameter_File>
/export/apps/rDock/src/rDock_2013.1_src/data/scripts/dock_solv.prm

>  <Rbt.Receptor>
prm/blind_docking_100.prm

>  <SCORE>
-28.6934

>  <SCORE.INTER>
-37.9118

>  <SCORE.INTER.CONST>
1

>  <SCORE.INTER.POLAR>
-2.93344

>  <SCORE.INTER.ROT>
10

>  <SCORE.INTER.SOLV>
9.77378

>  <SCORE.INTER.VDW>
-29.021

>  <SCORE.INTER.norm>
-1.26373

>  <SCORE.INTRA>
5.78097

>  <SCORE.INTRA.DIHEDRAL>
10.4977

>  <SCORE.INTRA.DIHEDRAL.0>
18.0451

>  <SCORE.INTRA.POLAR>
-0.107778

>  <SCORE.INTRA.POLAR.0>
-0.196815

>  <SCORE.INTRA.REPUL>
0

>  <SCORE.INTRA.REPUL.0>
0

>  <SCORE.INTRA.SOLV>
0.508559

>  <SCORE.INTRA.SOLV.lig_0>
-14.7906

>  <SCORE.INTRA.VDW>
0.644288

>  <SCORE.INTRA.VDW.0>
-0.411701

>  <SCORE.INTRA.norm>
0.192699

>  <SCORE.RESTR>
3.43746

>  <SCORE.RESTR.CAVITY>
3.43746

>  <SCORE.RESTR.norm>
0.114582

>  <SCORE.SYSTEM>
0

>  <SCORE.SYSTEM.CONST>
0

>  <SCORE.SYSTEM.DIHEDRAL>
0

>  <SCORE.SYSTEM.SOLV>
0

>  <SCORE.SYSTEM.norm>
0

>  <SCORE.heavy>
30

>  <SCORE.norm>
-0.956446

>  <RMSD>
18.438

$$$$
1uts_lig
 OpenBabel11021811413D
libRbt.so/2013.1/901 2013/11/27
 30 33  0  0  0  0  0  0  0  0999 V2000
   -5.3260  -12.2831    2.9381 N   0  0  0  0  0  0  0  0  0  0  0  0
   -6.6557  -11.4923    4.8470 C   0  0  0  0  0  0  0  0  0  0  0  0
   -9.4530   -8.1915    5.0837 C   0  0  0  0  0  0  0  0  0  0  0  0
   -5.8041  -10.2472    5.1109 C   0  0  0  0  0  0  0  0  0  0  0  0
   -6.6452   -9.0843    5.1014 O   0  0  0  0  0  0  0  0  0  0  0  0
   -5.7666  -12.6161    4.3116 C   0  0  0  0  0  0  0  0  0  0  0  0
  -10.8460   -7.7902    5.3845 N   0  0  0  0  0  0  0  0  0  0  0  0
  -10.8811   -7.0148    6.6528 C   0  0  0  0  0  0  0  0  0  0  0  0
  -11.0411   -5.5234    6.3438 C   0  0  0  0  0  0  0  0  0  0  0  0
  -11.0088   -4.7524    7.6068 N   0  0  0  0  0  0  0  0  0  0  0  0
  -12.1599   -3.8047    7.6348 C   0  0  0  0  0  0  0  0  0  0  0  0
   -9.7206   -4.0087    7.6989 C   0  0  0  0  0  0  0  0  0  0  0  0
  -12.1274   -2.9993    8.9438 C   0  0  0  0  0  0  0  0  0  0  0  0
   -9.6885   -3.1988    9.0076 C   0  0  0  0  0  0  0  0  0  0  0  0
  -10.8398   -2.2543    9.0359 N   0  0  0  0  0  0  0  0  0  0  0  0
   -7.3419   -9.1306    8.8087 C   0  0  0  0  0  0  0  0  0  0  0  0
  -11.3098   -7.8809   13.7528 N   0  0  0  0  0  0  0  0  0  0  0  0
   -8.6856   -8.6874    8.8446 C   0  0  0  0  0  0  0  0  0  0  0  0
   -9.3636   -8.3844    7.6339 C   0  0  0  0  0  0  0  0  0  0  0  0
   -8.6980   -8.5277    6.3856 C   0  0  0  0  0  0  0  0  0  0  0  0
   -7.3379   -8.9591    6.3527 C   0  0  0  0  0  0  0  0  0  0  0  0
   -6.6652   -9.2640    7.5676 C   0  0  0  0  0  0  0  0  0  0  0  0
  -11.2311   -6.4697   13.7635 C   0  0  0  0  0  0  0  0  0  0  0  0
  -10.5520   -5.9930   12.6192 C   0  0  0  0  0  0  0  0  0  0  0  0
   -9.5359   -7.2539   10.6339 C   0  0  0  0  0  0  0  0  0  0  0  0
   -9.3348   -8.5471   10.0793 C   0  0  0  0  0  0  0  0  0  0  0  0
   -9.7993   -9.6969   10.7753 C   0  0  0  0  0  0  0  0  0  0  0  0
  -10.4655   -9.5527   12.0222 C   0  0  0  0  0  0  0  0  0  0  0  0
  -10.6786   -8.2494   12.5709 C   0  0  0  0  0  0  0  0  0  0  0  0
  -10.2192   -7.1107   11.8841 C   0  0  0  0  0  0  0  0  0  0  0  0
  1  6  1  0  0  0  0
  2  4  1  0  0  0  0
  3  7  1  0  0  0  0
  4  5  1  0  0  0  0
  6  2  1  0  0  0  0
  7  8  1  0  0  0  0
  8  9  1  0  0  0  0
  9 10  1  0  0  0  0
 10 11  1  0  0  0  0
 10 12  1  0  0  0  0
 11 13  1  0  0  0  0
 13 15  1  0  0  0  0
 14 12  1  0  0  0  0
 15 14  1  0  0  0  0
 16 18  2  0  0  0  0
 16 22  1  0  0  0  0
 17 23  1  0  0  0  0
 17 29  1  0  0  0  0
 18 19  1  0  0  0  0
 18 26  1  0  0  0  0
 19 20  2  0  0  0  0
 20  3  1  0  0  0  0
 20 21  1  0  0  0  0
 21  5  1  0  0  0  0
 21 22  2  0  0  0  0
 23 24  2  0  0  0  0
 24 30  1  0  0  0  0
 25 26  2  0  0  0  0
 25 30  1  0  0  0  0
 26 27  1  0  0  0  0
 27 28  2  0  0  0  0
 28 29  1  0  0  0  0
 29 30  2  0  0  0  0
M  END
>  <CHROM.1>
165.02385023,157.70886838,36.21181533,79.40927843,-70.29569013,103.53284289
-177.25658455,-131.15748089,104.00931460,-1.81388115,-140.86822531,-9.29368267
-7.60926278,8.18607219,0.31970438,1.03678634,-1.09817937

>  <Name>
1uts_lig

>  <RI>
0

>  <Rbt.Current_Directory>
/home/itssahil/PROJECTS/Mol_Feturizer/New_Systems/rnas/1uts

>  <Rbt.Executable>
rbdock ($Id: //depot/dev/client3/rdock/2013.1/src/exe/rbdock.cxx#4 $)

>  <Rbt.Library>
libRbt.so (2013.1, Build901 2013/11/27)

>  <Rbt.Parameter_File>
/export/apps/rDock/src/rDock_2013.1_src/data/scripts/dock_solv.prm

>  <Rbt.Receptor>
prm/blind_docking_60.prm

>  <SCORE>
-1.28369

>  <SCORE.INTER>
-25.0044

>  <SCORE.INTER.CONST>
1

>  <SCORE.INTER.POLAR>
-1.88156

>  <SCORE.INTER.ROT>
10

>  <SCORE.INTER.SOLV>
9.37782

>  <SCORE.INTER.VDW>
-23.7903

>  <SCORE.INTER.norm>
-0.83348

>  <SCORE.INTRA>
18.3694

>  <SCORE.INTRA.DIHEDRAL>
0.930432

>  <SCORE.INTRA.DIHEDRAL.0>
18.0451

>  <SCORE.INTRA.POLAR>
0.196815

>  <SCORE.INTRA.POLAR.0>
-0.196815

>  <SCORE.INTRA.REPUL>
0

>  <SCORE.INTRA.REPUL.0>
0

>  <SCORE.INTRA.SOLV>
-0.432821

>  <SCORE.INTRA.SOLV.lig_0>
-14.7906

>  <SCORE.INTRA.VDW>
17.4514

>  <SCORE.INTRA.VDW.0>
-0.411701

>  <SCORE.INTRA.norm>
0.612313

>  <SCORE.RESTR>
5.35132

>  <SCORE.RESTR.CAVITY>
5.35132

>  <SCORE.RESTR.norm>
0.178377

>  <SCORE.SYSTEM>
0

>  <SCORE.SYSTEM.CONST>
0

>  <SCORE.SYSTEM.DIHEDRAL>
0

>  <SCORE.SYSTEM.SOLV>
0

>  <SCORE.SYSTEM.norm>
0

>  <SCORE.heavy>
30

>  <SCORE.norm>
-0.0427898

>  <RMSD>
18.447

$$$$
1uts_lig
 OpenBabel11021811413D
libRbt.so/2013.1/901 2013/11/27
 30 33  0  0  0  0  0  0  0  0999 V2000
   -9.7344   -9.2242   15.9406 N   0  0  0  0  0  0  0  0  0  0  0  0
  -10.2673   -8.0561   13.8457 C   0  0  0  0  0  0  0  0  0  0  0  0
  -12.3407   -6.5149    9.2243 C   0  0  0  0  0  0  0  0  0  0  0  0
  -11.4267   -8.0417   12.8452 C   0  0  0  0  0  0  0  0  0  0  0  0
  -11.2482   -6.9548   11.9251 O   0  0  0  0  0  0  0  0  0  0  0  0
  -10.2202   -9.4108   14.5547 C   0  0  0  0  0  0  0  0  0  0  0  0
  -12.1536   -5.1108    8.7934 N   0  0  0  0  0  0  0  0  0  0  0  0
  -13.0166   -4.8292    7.6157 C   0  0  0  0  0  0  0  0  0  0  0  0
  -12.5729   -5.6916    6.4305 C   0  0  0  0  0  0  0  0  0  0  0  0
  -11.4788   -5.0072    5.7056 N   0  0  0  0  0  0  0  0  0  0  0  0
  -11.5153   -5.4056    4.2690 C   0  0  0  0  0  0  0  0  0  0  0  0
  -10.1718   -5.3814    6.3160 C   0  0  0  0  0  0  0  0  0  0  0  0
  -10.3778   -4.6995    3.5135 C   0  0  0  0  0  0  0  0  0  0  0  0
   -9.0316   -4.6779    5.5579 C   0  0  0  0  0  0  0  0  0  0  0  0
   -9.0702   -5.0744    4.1228 N   0  0  0  0  0  0  0  0  0  0  0  0
   -8.4560   -8.4407    9.8690 C   0  0  0  0  0  0  0  0  0  0  0  0
   -6.1263  -10.1704    4.0835 N   0  0  0  0  0  0  0  0  0  0  0  0
   -8.9535   -8.2642    8.5557 C   0  0  0  0  0  0  0  0  0  0  0  0
  -10.2132   -7.6398    8.3539 C   0  0  0  0  0  0  0  0  0  0  0  0
  -10.9749   -7.1886    9.4667 C   0  0  0  0  0  0  0  0  0  0  0  0
  -10.4788   -7.3824   10.7909 C   0  0  0  0  0  0  0  0  0  0  0  0
   -9.2157   -8.0053   10.9867 C   0  0  0  0  0  0  0  0  0  0  0  0
   -7.1243  -11.0512    3.6081 C   0  0  0  0  0  0  0  0  0  0  0  0
   -8.2566  -11.0355    4.4539 C   0  0  0  0  0  0  0  0  0  0  0  0
   -8.7342   -9.6889    6.5805 C   0  0  0  0  0  0  0  0  0  0  0  0
   -8.1976   -8.7128    7.4636 C   0  0  0  0  0  0  0  0  0  0  0  0
   -6.8963   -8.1876    7.2333 C   0  0  0  0  0  0  0  0  0  0  0  0
   -6.1347   -8.6364    6.1206 C   0  0  0  0  0  0  0  0  0  0  0  0
   -6.6828   -9.6083    5.2261 C   0  0  0  0  0  0  0  0  0  0  0  0
   -7.9698  -10.1296    5.4527 C   0  0  0  0  0  0  0  0  0  0  0  0
  1  6  1  0  0  0  0
  2  4  1  0  0  0  0
  3  7  1  0  0  0  0
  4  5  1  0  0  0  0
  6  2  1  0  0  0  0
  7  8  1  0  0  0  0
  8  9  1  0  0  0  0
  9 10  1  0  0  0  0
 10 11  1  0  0  0  0
 10 12  1  0  0  0  0
 11 13  1  0  0  0  0
 13 15  1  0  0  0  0
 14 12  1  0  0  0  0
 15 14  1  0  0  0  0
 16 18  2  0  0  0  0
 16 22  1  0  0  0  0
 17 23  1  0  0  0  0
 17 29  1  0  0  0  0
 18 19  1  0  0  0  0
 18 26  1  0  0  0  0
 19 20  2  0  0  0  0
 20  3  1  0  0  0  0
 20 21  1  0  0  0  0
 21  5  1  0  0  0  0
 21 22  2  0  0  0  0
 23 24  2  0  0  0  0
 24 30  1  0  0  0  0
 25 26  2  0  0  0  0
 25 30  1  0  0  0  0
 26 27  1  0  0  0  0
 27 28  2  0  0  0  0
 28 29  1  0  0  0  0
 29 30  2  0  0  0  0
M  END
>  <CHROM.1>
-175.31270075,-163.63040621,133.18034146,89.49740232,-147.26462884,-64.17157141
-85.73020670,-151.06427409,120.00484286,-78.33661630,126.27343192,-9.69380154
-7.53114425,8.03277953,-1.90150515,0.81769211,-1.27535379

>  <Name>
1uts_lig

>  <RI>
0

>  <Rbt.Current_Directory>
/home/itssahil/PROJECTS/Mol_Feturizer/New_Systems/rnas/1uts

>  <Rbt.Executable>
rbdock ($Id: //depot/dev/client3/rdock/2013.1/src/exe/rbdock.cxx#4 $)

>  <Rbt.Library>
libRbt.so (2013.1, Build901 2013/11/27)

>  <Rbt.Parameter_File>
/export/apps/rDock/src/rDock_2013.1_src/data/scripts/dock_solv.prm

>  <Rbt.Receptor>
prm/blind_docking_100.prm

>  <SCORE>
-28.0867

>  <SCORE.INTER>
-35.5066

>  <SCORE.INTER.CONST>
1

>  <SCORE.INTER.POLAR>
-1.96879

>  <SCORE.INTER.ROT>
10

>  <SCORE.INTER.SOLV>
10.4707

>  <SCORE.INTER.VDW>
-30.8654

>  <SCORE.INTER.norm>
-1.18355

>  <SCORE.INTRA>
3.83009

>  <SCORE.INTRA.DIHEDRAL>
4.08098

>  <SCORE.INTRA.DIHEDRAL.0>
18.0451

>  <SCORE.INTRA.POLAR>
0.196815

>  <SCORE.INTRA.POLAR.0>
-0.196815

>  <SCORE.INTRA.REPUL>
0

>  <SCORE.INTRA.REPUL.0>
0

>  <SCORE.INTRA.SOLV>
-0.323884

>  <SCORE.INTRA.SOLV.lig_0>
-14.7906

>  <SCORE.INTRA.VDW>
1.28237

>  <SCORE.INTRA.VDW.0>
-0.411701

>  <SCORE.INTRA.norm>
0.12767

>  <SCORE.RESTR>
3.5899

>  <SCORE.RESTR.CAVITY>
3.5899

>  <SCORE.RESTR.norm>
0.119663

>  <SCORE.SYSTEM>
0

>  <SCORE.SYSTEM.CONST>
0

>  <SCORE.SYSTEM.DIHEDRAL>
0

>  <SCORE.SYSTEM.SOLV>
0

>  <SCORE.SYSTEM.norm>
0

>  <SCORE.heavy>
30

>  <SCORE.norm>
-0.936222

>  <RMSD>
18.475

$$$$
1uts_lig
 OpenBabel11021811413D
libRbt.so/2013.1/901 2013/11/27
 30 33  0  0  0  0  0  0  0  0999 V2000
  -10.5012   -4.5310    1.2412 N   0  0  0  0  0  0  0  0  0  0  0  0
  -11.6280   -4.8745    3.3975 C   0  0  0  0  0  0  0  0  0  0  0  0
  -10.3657   -7.2242    6.1356 C   0  0  0  0  0  0  0  0  0  0  0  0
  -11.4808   -4.7158    4.9136 C   0  0  0  0  0  0  0  0  0  0  0  0
  -12.5801   -5.3649    5.5692 O   0  0  0  0  0  0  0  0  0  0  0  0
  -10.3821   -4.3229    2.7021 C   0  0  0  0  0  0  0  0  0  0  0  0
   -9.0145   -6.6251    6.0491 N   0  0  0  0  0  0  0  0  0  0  0  0
   -8.6165   -6.4909    4.6228 C   0  0  0  0  0  0  0  0  0  0  0  0
   -7.1765   -6.9786    4.4389 C   0  0  0  0  0  0  0  0  0  0  0  0
   -7.1267   -8.4468    4.6205 N   0  0  0  0  0  0  0  0  0  0  0  0
   -5.8019   -8.8279    5.1892 C   0  0  0  0  0  0  0  0  0  0  0  0
   -7.3397   -9.1148    3.3055 C   0  0  0  0  0  0  0  0  0  0  0  0
   -5.7450  -10.3528    5.3757 C   0  0  0  0  0  0  0  0  0  0  0  0
   -7.2793  -10.6418    3.4903 C   0  0  0  0  0  0  0  0  0  0  0  0
   -5.9568  -11.0215    4.0606 N   0  0  0  0  0  0  0  0  0  0  0  0
  -12.6710   -5.3189    9.3403 C   0  0  0  0  0  0  0  0  0  0  0  0
  -10.3889   -7.5787   14.9699 N   0  0  0  0  0  0  0  0  0  0  0  0
  -11.6260   -6.2204    9.6546 C   0  0  0  0  0  0  0  0  0  0  0  0
  -10.8833   -6.8346    8.6113 C   0  0  0  0  0  0  0  0  0  0  0  0
  -11.1839   -6.5446    7.2521 C   0  0  0  0  0  0  0  0  0  0  0  0
  -12.2487   -5.6478    6.9372 C   0  0  0  0  0  0  0  0  0  0  0  0
  -12.9868   -5.0335    7.9858 C   0  0  0  0  0  0  0  0  0  0  0  0
  -10.2107   -8.9649   14.7592 C   0  0  0  0  0  0  0  0  0  0  0  0
  -10.4422   -9.3043   13.4069 C   0  0  0  0  0  0  0  0  0  0  0  0
  -11.0690   -7.8389   11.4009 C   0  0  0  0  0  0  0  0  0  0  0  0
  -11.3364   -6.5025   10.9970 C   0  0  0  0  0  0  0  0  0  0  0  0
  -11.3026   -5.4522   11.9551 C   0  0  0  0  0  0  0  0  0  0  0  0
  -10.9998   -5.7383   13.3138 C   0  0  0  0  0  0  0  0  0  0  0  0
  -10.7176   -7.0818   13.7144 C   0  0  0  0  0  0  0  0  0  0  0  0
  -10.7511   -8.1223   12.7680 C   0  0  0  0  0  0  0  0  0  0  0  0
  1  6  1  0  0  0  0
  2  4  1  0  0  0  0
  3  7  1  0  0  0  0
  4  5  1  0  0  0  0
  6  2  1  0  0  0  0
  7  8  1  0  0  0  0
  8  9  1  0  0  0  0
  9 10  1  0  0  0  0
 10 11  1  0  0  0  0
 10 12  1  0  0  0  0
 11 13  1  0  0  0  0
 13 15  1  0  0  0  0
 14 12  1  0  0  0  0
 15 14  1  0  0  0  0
 16 18  2  0  0  0  0
 16 22  1  0  0  0  0
 17 23  1  0  0  0  0
 17 29  1  0  0  0  0
 18 19  1  0  0  0  0
 18 26  1  0  0  0  0
 19 20  2  0  0  0  0
 20  3  1  0  0  0  0
 20 21  1  0  0  0  0
 21  5  1  0  0  0  0
 21 22  2  0  0  0  0
 23 24  2  0  0  0  0
 24 30  1  0  0  0  0
 25 26  2  0  0  0  0
 25 30  1  0  0  0  0
 26 27  1  0  0  0  0
 27 28  2  0  0  0  0
 28 29  1  0  0  0  0
 29 30  2  0  0  0  0
M  END
>  <CHROM.1>
-59.46742608,-173.68978793,-140.34044877,159.72219218,177.55544556,-134.61736654
69.50268134,-148.75939388,137.35040768,-74.00217569,-63.37284122,-9.91317159
-7.06897183,7.52384832,1.19668055,0.75340663,-1.33007865

>  <Name>
1uts_lig

>  <RI>
0

>  <Rbt.Current_Directory>
/home/itssahil/PROJECTS/Mol_Feturizer/New_Systems/rnas/1uts

>  <Rbt.Executable>
rbdock ($Id: //depot/dev/client3/rdock/2013.1/src/exe/rbdock.cxx#4 $)

>  <Rbt.Library>
libRbt.so (2013.1, Build901 2013/11/27)

>  <Rbt.Parameter_File>
/export/apps/rDock/src/rDock_2013.1_src/data/scripts/dock_solv.prm

>  <Rbt.Receptor>
prm/blind_docking_100.prm

>  <SCORE>
-13.6938

>  <SCORE.INTER>
-18.8515

>  <SCORE.INTER.CONST>
1

>  <SCORE.INTER.POLAR>
-0.746184

>  <SCORE.INTER.ROT>
10

>  <SCORE.INTER.SOLV>
7.3449

>  <SCORE.INTER.VDW>
-22.7954

>  <SCORE.INTER.norm>
-0.628384

>  <SCORE.INTRA>
0.160464

>  <SCORE.INTRA.DIHEDRAL>
-1.31063

>  <SCORE.INTRA.DIHEDRAL.0>
18.0451

>  <SCORE.INTRA.POLAR>
0.196815

>  <SCORE.INTRA.POLAR.0>
-0.196815

>  <SCORE.INTRA.REPUL>
0

>  <SCORE.INTRA.REPUL.0>
0

>  <SCORE.INTRA.SOLV>
-0.198933

>  <SCORE.INTRA.SOLV.lig_0>
-14.7906

>  <SCORE.INTRA.VDW>
0.246075

>  <SCORE.INTRA.VDW.0>
-0.411701

>  <SCORE.INTRA.norm>
0.00534879

>  <SCORE.RESTR>
4.99723

>  <SCORE.RESTR.CAVITY>
4.99723

>  <SCORE.RESTR.norm>
0.166574

>  <SCORE.SYSTEM>
0

>  <SCORE.SYSTEM.CONST>
0

>  <SCORE.SYSTEM.DIHEDRAL>
0

>  <SCORE.SYSTEM.SOLV>
0

>  <SCORE.SYSTEM.norm>
0

>  <SCORE.heavy>
30

>  <SCORE.norm>
-0.456461

>  <RMSD>
18.498

$$$$
1uts_lig
 OpenBabel11021811413D
libRbt.so/2013.1/901 2013/11/27
 30 33  0  0  0  0  0  0  0  0999 V2000
   -6.5730  -12.7616    3.5255 N   0  0  0  0  0  0  0  0  0  0  0  0
   -4.7629  -11.4848    4.5887 C   0  0  0  0  0  0  0  0  0  0  0  0
   -7.4093   -7.3783    4.4944 C   0  0  0  0  0  0  0  0  0  0  0  0
   -5.8059  -10.8830    5.5349 C   0  0  0  0  0  0  0  0  0  0  0  0
   -5.6340   -9.4592    5.5895 O   0  0  0  0  0  0  0  0  0  0  0  0
   -5.4296  -11.8586    3.2635 C   0  0  0  0  0  0  0  0  0  0  0  0
   -8.7351   -7.4679    3.8416 N   0  0  0  0  0  0  0  0  0  0  0  0
   -9.8061   -7.2647    4.8529 C   0  0  0  0  0  0  0  0  0  0  0  0
  -10.3473   -5.8354    4.7539 C   0  0  0  0  0  0  0  0  0  0  0  0
  -11.0317   -5.4793    6.0171 N   0  0  0  0  0  0  0  0  0  0  0  0
  -12.2922   -4.7462    5.7045 C   0  0  0  0  0  0  0  0  0  0  0  0
  -10.1291   -4.6316    6.8462 C   0  0  0  0  0  0  0  0  0  0  0  0
  -13.0040   -4.3713    7.0144 C   0  0  0  0  0  0  0  0  0  0  0  0
  -10.8422   -4.2523    8.1566 C   0  0  0  0  0  0  0  0  0  0  0  0
  -12.1021   -3.5224    7.8435 N   0  0  0  0  0  0  0  0  0  0  0  0
   -7.6896   -8.7073    8.6621 C   0  0  0  0  0  0  0  0  0  0  0  0
  -12.4937   -5.4848   11.5263 N   0  0  0  0  0  0  0  0  0  0  0  0
   -8.5495   -7.6918    8.1796 C   0  0  0  0  0  0  0  0  0  0  0  0
   -8.4530   -7.2655    6.8282 C   0  0  0  0  0  0  0  0  0  0  0  0
   -7.4976   -7.8577    5.9573 C   0  0  0  0  0  0  0  0  0  0  0  0
   -6.6205   -8.8701    6.4503 C   0  0  0  0  0  0  0  0  0  0  0  0
   -6.7237   -9.2950    7.8032 C   0  0  0  0  0  0  0  0  0  0  0  0
  -13.6133   -5.8686   10.7538 C   0  0  0  0  0  0  0  0  0  0  0  0
  -13.2099   -6.5517    9.5841 C   0  0  0  0  0  0  0  0  0  0  0  0
  -10.8745   -7.1811    8.7391 C   0  0  0  0  0  0  0  0  0  0  0  0
   -9.4880   -7.1116    9.0445 C   0  0  0  0  0  0  0  0  0  0  0  0
   -9.0556   -6.4590   10.2317 C   0  0  0  0  0  0  0  0  0  0  0  0
  -10.0086   -5.8793   11.1122 C   0  0  0  0  0  0  0  0  0  0  0  0
  -11.4036   -5.9630   10.8091 C   0  0  0  0  0  0  0  0  0  0  0  0
  -11.8333   -6.6077    9.6348 C   0  0  0  0  0  0  0  0  0  0  0  0
  1  6  1  0  0  0  0
  2  4  1  0  0  0  0
  3  7  1  0  0  0  0
  4  5  1  0  0  0  0
  6  2  1  0  0  0  0
  7  8  1  0  0  0  0
  8  9  1  0  0  0  0
  9 10  1  0  0  0  0
 10 11  1  0  0  0  0
 10 12  1  0  0  0  0
 11 13  1  0  0  0  0
 13 15  1  0  0  0  0
 14 12  1  0  0  0  0
 15 14  1  0  0  0  0
 16 18  2  0  0  0  0
 16 22  1  0  0  0  0
 17 23  1  0  0  0  0
 17 29  1  0  0  0  0
 18 19  1  0  0  0  0
 18 26  1  0  0  0  0
 19 20  2  0  0  0  0
 20  3  1  0  0  0  0
 20 21  1  0  0  0  0
 21  5  1  0  0  0  0
 21 22  2  0  0  0  0
 23 24  2  0  0  0  0
 24 30  1  0  0  0  0
 25 26  2  0  0  0  0
 25 30  1  0  0  0  0
 26 27  1  0  0  0  0
 27 28  2  0  0  0  0
 28 29  1  0  0  0  0
 29 30  2  0  0  0  0
M  END
>  <CHROM.1>
-177.96371851,-104.10561620,30.40042108,178.79657052,-55.23480372,101.36319066
-159.97667426,-137.96481528,-120.65103976,-54.27767510,-123.04470750,-9.36038384
-7.29807288,7.13432974,0.41739365,0.78970281,-1.42252106

>  <Name>
1uts_lig

>  <RI>
0

>  <Rbt.Current_Directory>
/home/itssahil/PROJECTS/Mol_Feturizer/New_Systems/rnas/1uts

>  <Rbt.Executable>
rbdock ($Id: //depot/dev/client3/rdock/2013.1/src/exe/rbdock.cxx#4 $)

>  <Rbt.Library>
libRbt.so (2013.1, Build901 2013/11/27)

>  <Rbt.Parameter_File>
/export/apps/rDock/src/rDock_2013.1_src/data/scripts/dock_solv.prm

>  <Rbt.Receptor>
prm/blind_docking_100.prm

>  <SCORE>
1.84079

>  <SCORE.INTER>
-17.6627

>  <SCORE.INTER.CONST>
1

>  <SCORE.INTER.POLAR>
-1.3009

>  <SCORE.INTER.ROT>
10

>  <SCORE.INTER.SOLV>
7.60774

>  <SCORE.INTER.VDW>
-20.2414

>  <SCORE.INTER.norm>
-0.588755

>  <SCORE.INTRA>
17.9032

>  <SCORE.INTRA.DIHEDRAL>
3.12176

>  <SCORE.INTRA.DIHEDRAL.0>
18.0451

>  <SCORE.INTRA.POLAR>
0.196815

>  <SCORE.INTRA.POLAR.0>
-0.196815

>  <SCORE.INTRA.REPUL>
0

>  <SCORE.INTRA.REPUL.0>
0

>  <SCORE.INTRA.SOLV>
0.428683

>  <SCORE.INTRA.SOLV.lig_0>
-14.7906

>  <SCORE.INTRA.VDW>
15.4588

>  <SCORE.INTRA.VDW.0>
-0.411701

>  <SCORE.INTRA.norm>
0.596774

>  <SCORE.RESTR>
1.60023

>  <SCORE.RESTR.CAVITY>
1.60023

>  <SCORE.RESTR.norm>
0.0533411

>  <SCORE.SYSTEM>
0

>  <SCORE.SYSTEM.CONST>
0

>  <SCORE.SYSTEM.DIHEDRAL>
0

>  <SCORE.SYSTEM.SOLV>
0

>  <SCORE.SYSTEM.norm>
0

>  <SCORE.heavy>
30

>  <SCORE.norm>
0.0613598

>  <RMSD>
18.502

$$$$
1uts_lig
 OpenBabel11021811413D
libRbt.so/2013.1/901 2013/11/27
 30 33  0  0  0  0  0  0  0  0999 V2000
   -4.3592  -11.6687    4.6985 N   0  0  0  0  0  0  0  0  0  0  0  0
   -6.4562  -12.2647    3.5652 C   0  0  0  0  0  0  0  0  0  0  0  0
   -6.4738   -8.3290    5.4847 C   0  0  0  0  0  0  0  0  0  0  0  0
   -7.1794  -11.1170    4.2758 C   0  0  0  0  0  0  0  0  0  0  0  0
   -7.4657  -10.0764    3.3297 O   0  0  0  0  0  0  0  0  0  0  0  0
   -4.9823  -11.9015    3.3760 C   0  0  0  0  0  0  0  0  0  0  0  0
   -6.4117   -9.2067    6.6754 N   0  0  0  0  0  0  0  0  0  0  0  0
   -6.7680   -8.4278    7.8909 C   0  0  0  0  0  0  0  0  0  0  0  0
   -7.7622   -9.2228    8.7424 C   0  0  0  0  0  0  0  0  0  0  0  0
   -8.5261   -8.2930    9.6043 N   0  0  0  0  0  0  0  0  0  0  0  0
   -9.4341   -9.0767   10.4904 C   0  0  0  0  0  0  0  0  0  0  0  0
   -9.3123   -7.3595    8.7491 C   0  0  0  0  0  0  0  0  0  0  0  0
  -10.2323   -8.1141   11.3846 C   0  0  0  0  0  0  0  0  0  0  0  0
  -10.1149   -6.3974    9.6434 C   0  0  0  0  0  0  0  0  0  0  0  0
  -11.0197   -7.1810   10.5298 N   0  0  0  0  0  0  0  0  0  0  0  0
  -10.5910   -8.0734    4.0023 C   0  0  0  0  0  0  0  0  0  0  0  0
  -13.7348   -3.6672    7.5341 N   0  0  0  0  0  0  0  0  0  0  0  0
  -10.1588   -7.2278    5.0517 C   0  0  0  0  0  0  0  0  0  0  0  0
   -8.8235   -7.3162    5.5277 C   0  0  0  0  0  0  0  0  0  0  0  0
   -7.9184   -8.2492    4.9512 C   0  0  0  0  0  0  0  0  0  0  0  0
   -8.3610   -9.1122    3.9041 C   0  0  0  0  0  0  0  0  0  0  0  0
   -9.6980   -9.0171    3.4296 C   0  0  0  0  0  0  0  0  0  0  0  0
  -13.8930   -4.3896    8.7386 C   0  0  0  0  0  0  0  0  0  0  0  0
  -13.1408   -5.5859    8.7128 C   0  0  0  0  0  0  0  0  0  0  0  0
  -11.5987   -6.5505    6.9085 C   0  0  0  0  0  0  0  0  0  0  0  0
  -11.0572   -6.3114    5.6162 C   0  0  0  0  0  0  0  0  0  0  0  0
  -11.4230   -5.1383    4.9003 C   0  0  0  0  0  0  0  0  0  0  0  0
  -12.3266   -4.2056    5.4774 C   0  0  0  0  0  0  0  0  0  0  0  0
  -12.8588   -4.4421    6.7835 C   0  0  0  0  0  0  0  0  0  0  0  0
  -12.4986   -5.6024    7.4930 C   0  0  0  0  0  0  0  0  0  0  0  0
  1  6  1  0  0  0  0
  2  4  1  0  0  0  0
  3  7  1  0  0  0  0
  4  5  1  0  0  0  0
  6  2  1  0  0  0  0
  7  8  1  0  0  0  0
  8  9  1  0  0  0  0
  9 10  1  0  0  0  0
 10 11  1  0  0  0  0
 10 12  1  0  0  0  0
 11 13  1  0  0  0  0
 13 15  1  0  0  0  0
 14 12  1  0  0  0  0
 15 14  1  0  0  0  0
 16 18  2  0  0  0  0
 16 22  1  0  0  0  0
 17 23  1  0  0  0  0
 17 29  1  0  0  0  0
 18 19  1  0  0  0  0
 18 26  1  0  0  0  0
 19 20  2  0  0  0  0
 20  3  1  0  0  0  0
 20 21  1  0  0  0  0
 21  5  1  0  0  0  0
 21 22  2  0  0  0  0
 23 24  2  0  0  0  0
 24 30  1  0  0  0  0
 25 26  2  0  0  0  0
 25 30  1  0  0  0  0
 26 27  1  0  0  0  0
 27 28  2  0  0  0  0
 28 29  1  0  0  0  0
 29 30  2  0  0  0  0
M  END
>  <CHROM.1>
-42.55349570,78.82097069,-84.40406307,168.95260154,59.97365870,133.84408220
-156.87351545,-176.61124055,106.23586902,84.30929514,69.50975959,-9.37256478
-7.87517620,6.62529994,-0.43759894,-0.71632027,1.55593805

>  <Name>
1uts_lig

>  <RI>
0

>  <Rbt.Current_Directory>
/home/itssahil/PROJECTS/Mol_Feturizer/New_Systems/rnas/1uts

>  <Rbt.Executable>
rbdock ($Id: //depot/dev/client3/rdock/2013.1/src/exe/rbdock.cxx#4 $)

>  <Rbt.Library>
libRbt.so (2013.1, Build901 2013/11/27)

>  <Rbt.Parameter_File>
/export/apps/rDock/src/rDock_2013.1_src/data/scripts/dock_solv.prm

>  <Rbt.Receptor>
prm/blind_docking_20.prm

>  <SCORE>
-21.6162

>  <SCORE.INTER>
-25.6527

>  <SCORE.INTER.CONST>
1

>  <SCORE.INTER.POLAR>
-2.52349

>  <SCORE.INTER.ROT>
10

>  <SCORE.INTER.SOLV>
7.69067

>  <SCORE.INTER.VDW>
-21.5204

>  <SCORE.INTER.norm>
-0.855089

>  <SCORE.INTRA>
1.10007

>  <SCORE.INTRA.DIHEDRAL>
0.0962853

>  <SCORE.INTRA.DIHEDRAL.0>
18.0451

>  <SCORE.INTRA.POLAR>
0.196815

>  <SCORE.INTRA.POLAR.0>
-0.196815

>  <SCORE.INTRA.REPUL>
0

>  <SCORE.INTRA.REPUL.0>
0

>  <SCORE.INTRA.SOLV>
0.432623

>  <SCORE.INTRA.SOLV.lig_0>
-14.7906

>  <SCORE.INTRA.VDW>
0.166442

>  <SCORE.INTRA.VDW.0>
-0.411701

>  <SCORE.INTRA.norm>
0.0366689

>  <SCORE.RESTR>
2.93643

>  <SCORE.RESTR.CAVITY>
2.93643

>  <SCORE.RESTR.norm>
0.097881

>  <SCORE.SYSTEM>
0

>  <SCORE.SYSTEM.CONST>
0

>  <SCORE.SYSTEM.DIHEDRAL>
0

>  <SCORE.SYSTEM.SOLV>
0

>  <SCORE.SYSTEM.norm>
0

>  <SCORE.heavy>
30

>  <SCORE.norm>
-0.720539

>  <RMSD>
18.502

$$$$
1uts_lig
 OpenBabel11021811413D
libRbt.so/2013.1/901 2013/11/27
 30 33  0  0  0  0  0  0  0  0999 V2000
  -11.1645   -9.1737   13.4962 N   0  0  0  0  0  0  0  0  0  0  0  0
   -9.8756   -7.4085   12.3737 C   0  0  0  0  0  0  0  0  0  0  0  0
  -11.0929   -7.6039    7.9029 C   0  0  0  0  0  0  0  0  0  0  0  0
   -9.3390   -8.1170   11.1265 C   0  0  0  0  0  0  0  0  0  0  0  0
   -9.1541   -7.1568   10.0760 O   0  0  0  0  0  0  0  0  0  0  0  0
   -9.9089   -8.3912   13.5457 C   0  0  0  0  0  0  0  0  0  0  0  0
  -11.1813   -6.2060    8.3825 N   0  0  0  0  0  0  0  0  0  0  0  0
  -12.1905   -6.1126    9.4706 C   0  0  0  0  0  0  0  0  0  0  0  0
  -11.8440   -4.9452   10.3994 C   0  0  0  0  0  0  0  0  0  0  0  0
  -11.4707   -3.7646    9.5885 N   0  0  0  0  0  0  0  0  0  0  0  0
  -10.1113   -3.3012    9.9901 C   0  0  0  0  0  0  0  0  0  0  0  0
  -12.4729   -2.6823    9.8009 C   0  0  0  0  0  0  0  0  0  0  0  0
   -9.7217   -2.0725    9.1525 C   0  0  0  0  0  0  0  0  0  0  0  0
  -12.0817   -1.4500    8.9655 C   0  0  0  0  0  0  0  0  0  0  0  0
  -10.7230   -0.9893    9.3656 N   0  0  0  0  0  0  0  0  0  0  0  0
   -6.9117   -8.8798    7.5791 C   0  0  0  0  0  0  0  0  0  0  0  0
   -5.9969  -11.9922    2.0334 N   0  0  0  0  0  0  0  0  0  0  0  0
   -7.8160   -9.1296    6.5193 C   0  0  0  0  0  0  0  0  0  0  0  0
   -9.1697   -8.7139    6.6310 C   0  0  0  0  0  0  0  0  0  0  0  0
   -9.6186   -8.0449    7.8026 C   0  0  0  0  0  0  0  0  0  0  0  0
   -8.7090   -7.8086    8.8768 C   0  0  0  0  0  0  0  0  0  0  0  0
   -7.3544   -8.2242    8.7582 C   0  0  0  0  0  0  0  0  0  0  0  0
   -5.5896  -13.1570    2.7226 C   0  0  0  0  0  0  0  0  0  0  0  0
   -5.8048  -13.0226    4.1130 C   0  0  0  0  0  0  0  0  0  0  0  0
   -6.8010  -11.0912    5.4698 C   0  0  0  0  0  0  0  0  0  0  0  0
   -7.3665   -9.7911    5.3678 C   0  0  0  0  0  0  0  0  0  0  0  0
   -7.4816   -9.1659    4.0958 C   0  0  0  0  0  0  0  0  0  0  0  0
   -7.0340   -9.8413    2.9282 C   0  0  0  0  0  0  0  0  0  0  0  0
   -6.4783  -11.1548    3.0325 C   0  0  0  0  0  0  0  0  0  0  0  0
   -6.3630  -11.7746    4.2902 C   0  0  0  0  0  0  0  0  0  0  0  0
  1  6  1  0  0  0  0
  2  4  1  0  0  0  0
  3  7  1  0  0  0  0
  4  5  1  0  0  0  0
  6  2  1  0  0  0  0
  7  8  1  0  0  0  0
  8  9  1  0  0  0  0
  9 10  1  0  0  0  0
 10 11  1  0  0  0  0
 10 12  1  0  0  0  0
 11 13  1  0  0  0  0
 13 15  1  0  0  0  0
 14 12  1  0  0  0  0
 15 14  1  0  0  0  0
 16 18  2  0  0  0  0
 16 22  1  0  0  0  0
 17 23  1  0  0  0  0
 17 29  1  0  0  0  0
 18 19  1  0  0  0  0
 18 26  1  0  0  0  0
 19 20  2  0  0  0  0
 20  3  1  0  0  0  0
 20 21  1  0  0  0  0
 21  5  1  0  0  0  0
 21 22  2  0  0  0  0
 23 24  2  0  0  0  0
 24 30  1  0  0  0  0
 25 26  2  0  0  0  0
 25 30  1  0  0  0  0
 26 27  1  0  0  0  0
 27 28  2  0  0  0  0
 28 29  1  0  0  0  0
 29 30  2  0  0  0  0
M  END
>  <CHROM.1>
-18.85090826,-172.97672482,-132.57127468,-177.37569723,-84.46377380,152.88639157
44.36036716,-123.90491128,58.52438579,-133.19897824,103.00829994,-9.13848567
-7.56501984,7.94628289,-3.11005206,1.12310311,-0.86897917

>  <Name>
1uts_lig

>  <RI>
0

>  <Rbt.Current_Directory>
/home/itssahil/PROJECTS/Mol_Feturizer/New_Systems/rnas/1uts

>  <Rbt.Executable>
rbdock ($Id: //depot/dev/client3/rdock/2013.1/src/exe/rbdock.cxx#4 $)

>  <Rbt.Library>
libRbt.so (2013.1, Build901 2013/11/27)

>  <Rbt.Parameter_File>
/export/apps/rDock/src/rDock_2013.1_src/data/scripts/dock_solv.prm

>  <Rbt.Receptor>
prm/blind_docking_40.prm

>  <SCORE>
-19.0804

>  <SCORE.INTER>
-26.0241

>  <SCORE.INTER.CONST>
1

>  <SCORE.INTER.POLAR>
-1.65273

>  <SCORE.INTER.ROT>
10

>  <SCORE.INTER.SOLV>
8.41878

>  <SCORE.INTER.VDW>
-24.9132

>  <SCORE.INTER.norm>
-0.86747

>  <SCORE.INTRA>
1.41804

>  <SCORE.INTRA.DIHEDRAL>
4.87092

>  <SCORE.INTRA.DIHEDRAL.0>
18.0451

>  <SCORE.INTRA.POLAR>
-0.221033

>  <SCORE.INTRA.POLAR.0>
-0.196815

>  <SCORE.INTRA.REPUL>
0

>  <SCORE.INTRA.REPUL.0>
0

>  <SCORE.INTRA.SOLV>
0.202411

>  <SCORE.INTRA.SOLV.lig_0>
-14.7906

>  <SCORE.INTRA.VDW>
-0.367115

>  <SCORE.INTRA.VDW.0>
-0.411701

>  <SCORE.INTRA.norm>
0.047268

>  <SCORE.RESTR>
5.52564

>  <SCORE.RESTR.CAVITY>
5.52564

>  <SCORE.RESTR.norm>
0.184188

>  <SCORE.SYSTEM>
0

>  <SCORE.SYSTEM.CONST>
0

>  <SCORE.SYSTEM.DIHEDRAL>
0

>  <SCORE.SYSTEM.SOLV>
0

>  <SCORE.SYSTEM.norm>
0

>  <SCORE.heavy>
30

>  <SCORE.norm>
-0.636014

>  <RMSD>
18.507

$$$$
1uts_lig
 OpenBabel11021811413D
libRbt.so/2013.1/901 2013/11/27
 30 33  0  0  0  0  0  0  0  0999 V2000
  -10.4423   -5.7900    1.3017 N   0  0  0  0  0  0  0  0  0  0  0  0
  -10.1113   -4.5136    3.3750 C   0  0  0  0  0  0  0  0  0  0  0  0
  -10.4885   -8.4669    6.1334 C   0  0  0  0  0  0  0  0  0  0  0  0
  -10.1290   -4.6582    4.8994 C   0  0  0  0  0  0  0  0  0  0  0  0
   -9.4306   -5.8553    5.2723 O   0  0  0  0  0  0  0  0  0  0  0  0
  -10.7942   -5.7253    2.7382 C   0  0  0  0  0  0  0  0  0  0  0  0
   -9.6720   -8.3611    4.9029 N   0  0  0  0  0  0  0  0  0  0  0  0
   -8.3189   -8.9264    5.1495 C   0  0  0  0  0  0  0  0  0  0  0  0
   -8.3643  -10.4521    5.0237 C   0  0  0  0  0  0  0  0  0  0  0  0
   -7.1036  -10.9339    4.4159 N   0  0  0  0  0  0  0  0  0  0  0  0
   -7.2638  -12.3618    4.0166 C   0  0  0  0  0  0  0  0  0  0  0  0
   -5.9940  -10.7905    5.4003 C   0  0  0  0  0  0  0  0  0  0  0  0
   -5.9549  -12.8669    3.3883 C   0  0  0  0  0  0  0  0  0  0  0  0
   -4.6834  -11.2995    4.7736 C   0  0  0  0  0  0  0  0  0  0  0  0
   -4.8449  -12.7249    4.3729 N   0  0  0  0  0  0  0  0  0  0  0  0
   -9.3985   -5.3439    9.0098 C   0  0  0  0  0  0  0  0  0  0  0  0
  -10.5545   -7.6849   14.9412 N   0  0  0  0  0  0  0  0  0  0  0  0
   -9.9203   -6.5788    9.4638 C   0  0  0  0  0  0  0  0  0  0  0  0
  -10.2719   -7.5863    8.5264 C   0  0  0  0  0  0  0  0  0  0  0  0
  -10.0985   -7.3597    7.1334 C   0  0  0  0  0  0  0  0  0  0  0  0
   -9.5874   -6.1077    6.6768 C   0  0  0  0  0  0  0  0  0  0  0  0
   -9.2343   -5.1040    7.6200 C   0  0  0  0  0  0  0  0  0  0  0  0
  -10.6006   -9.0933   14.8310 C   0  0  0  0  0  0  0  0  0  0  0  0
  -10.4964   -9.4981   13.4809 C   0  0  0  0  0  0  0  0  0  0  0  0
  -10.2189   -8.1181   11.3402 C   0  0  0  0  0  0  0  0  0  0  0  0
  -10.0898   -6.7944   10.8387 C   0  0  0  0  0  0  0  0  0  0  0  0
  -10.1259   -5.6904   11.7344 C   0  0  0  0  0  0  0  0  0  0  0  0
  -10.2885   -5.9108   13.1288 C   0  0  0  0  0  0  0  0  0  0  0  0
  -10.4042   -7.2445   13.6318 C   0  0  0  0  0  0  0  0  0  0  0  0
  -10.3693   -8.3379   12.7471 C   0  0  0  0  0  0  0  0  0  0  0  0
  1  6  1  0  0  0  0
  2  4  1  0  0  0  0
  3  7  1  0  0  0  0
  4  5  1  0  0  0  0
  6  2  1  0  0  0  0
  7  8  1  0  0  0  0
  8  9  1  0  0  0  0
  9 10  1  0  0  0  0
 10 11  1  0  0  0  0
 10 12  1  0  0  0  0
 11 13  1  0  0  0  0
 13 15  1  0  0  0  0
 14 12  1  0  0  0  0
 15 14  1  0  0  0  0
 16 18  2  0  0  0  0
 16 22  1  0  0  0  0
 17 23  1  0  0  0  0
 17 29  1  0  0  0  0
 18 19  1  0  0  0  0
 18 26  1  0  0  0  0
 19 20  2  0  0  0  0
 20  3  1  0  0  0  0
 20 21  1  0  0  0  0
 21  5  1  0  0  0  0
 21 22  2  0  0  0  0
 23 24  2  0  0  0  0
 24 30  1  0  0  0  0
 25 26  2  0  0  0  0
 25 30  1  0  0  0  0
 26 27  1  0  0  0  0
 27 28  2  0  0  0  0
 28 29  1  0  0  0  0
 29 30  2  0  0  0  0
M  END
>  <CHROM.1>
-61.56167540,59.87075990,78.10147099,-172.24878357,-163.76665649,81.36058116
144.01775151,-167.53238362,-161.05032466,-152.10605415,125.06270404,-9.11941711
-8.05517767,7.45374123,1.01226139,1.02149026,-1.31841165

>  <Name>
1uts_lig

>  <RI>
0

>  <Rbt.Current_Directory>
/home/itssahil/PROJECTS/Mol_Feturizer/New_Systems/rnas/1uts

>  <Rbt.Executable>
rbdock ($Id: //depot/dev/client3/rdock/2013.1/src/exe/rbdock.cxx#4 $)

>  <Rbt.Library>
libRbt.so (2013.1, Build901 2013/11/27)

>  <Rbt.Parameter_File>
/export/apps/rDock/src/rDock_2013.1_src/data/scripts/dock_solv.prm

>  <Rbt.Receptor>
prm/blind_docking_60.prm

>  <SCORE>
-14.3976

>  <SCORE.INTER>
-19.7222

>  <SCORE.INTER.CONST>
1

>  <SCORE.INTER.POLAR>
-1.27194

>  <SCORE.INTER.ROT>
10

>  <SCORE.INTER.SOLV>
8.25775

>  <SCORE.INTER.VDW>
-21.9276

>  <SCORE.INTER.norm>
-0.657407

>  <SCORE.INTRA>
-2.70447

>  <SCORE.INTRA.DIHEDRAL>
-6.64194

>  <SCORE.INTRA.DIHEDRAL.0>
18.0451

>  <SCORE.INTRA.POLAR>
-0.639821

>  <SCORE.INTRA.POLAR.0>
-0.196815

>  <SCORE.INTRA.REPUL>
0

>  <SCORE.INTRA.REPUL.0>
0

>  <SCORE.INTRA.SOLV>
-0.0629863

>  <SCORE.INTRA.SOLV.lig_0>
-14.7906

>  <SCORE.INTRA.VDW>
2.82339

>  <SCORE.INTRA.VDW.0>
-0.411701

>  <SCORE.INTRA.norm>
-0.090149

>  <SCORE.RESTR>
8.02913

>  <SCORE.RESTR.CAVITY>
8.02913

>  <SCORE.RESTR.norm>
0.267638

>  <SCORE.SYSTEM>
0

>  <SCORE.SYSTEM.CONST>
0

>  <SCORE.SYSTEM.DIHEDRAL>
0

>  <SCORE.SYSTEM.SOLV>
0

>  <SCORE.SYSTEM.norm>
0

>  <SCORE.heavy>
30

>  <SCORE.norm>
-0.479919

>  <RMSD>
18.518

$$$$
1uts_lig
 OpenBabel11021811413D
libRbt.so/2013.1/901 2013/11/27
 30 33  0  0  0  0  0  0  0  0999 V2000
  -10.0460   -0.9033    8.8210 N   0  0  0  0  0  0  0  0  0  0  0  0
  -11.9428   -2.4584    8.9649 C   0  0  0  0  0  0  0  0  0  0  0  0
  -13.2068   -6.7166    6.6806 C   0  0  0  0  0  0  0  0  0  0  0  0
  -11.1618   -3.5883    8.2876 C   0  0  0  0  0  0  0  0  0  0  0  0
  -11.9317   -4.1107    7.1948 O   0  0  0  0  0  0  0  0  0  0  0  0
  -10.9784   -1.5726    9.7558 C   0  0  0  0  0  0  0  0  0  0  0  0
  -13.1893   -7.6407    7.8372 N   0  0  0  0  0  0  0  0  0  0  0  0
  -13.0648   -6.8626    9.0982 C   0  0  0  0  0  0  0  0  0  0  0  0
  -11.6410   -6.3139    9.2296 C   0  0  0  0  0  0  0  0  0  0  0  0
  -10.6794   -7.4390    9.2494 N   0  0  0  0  0  0  0  0  0  0  0  0
  -10.0925   -7.5611   10.6149 C   0  0  0  0  0  0  0  0  0  0  0  0
   -9.6083   -7.1914    8.2432 C   0  0  0  0  0  0  0  0  0  0  0  0
   -9.0902   -8.7265   10.6383 C   0  0  0  0  0  0  0  0  0  0  0  0
   -8.6019   -8.3559    8.2684 C   0  0  0  0  0  0  0  0  0  0  0  0
   -8.0180   -8.4787    9.6330 N   0  0  0  0  0  0  0  0  0  0  0  0
   -9.1109   -5.8435    5.3859 C   0  0  0  0  0  0  0  0  0  0  0  0
   -6.6389  -10.8896    2.2848 N   0  0  0  0  0  0  0  0  0  0  0  0
   -9.6807   -7.1146    5.1352 C   0  0  0  0  0  0  0  0  0  0  0  0
  -11.0083   -7.3911    5.5578 C   0  0  0  0  0  0  0  0  0  0  0  0
  -11.7679   -6.3941    6.2292 C   0  0  0  0  0  0  0  0  0  0  0  0
  -11.1857   -5.1185    6.4956 C   0  0  0  0  0  0  0  0  0  0  0  0
   -9.8574   -4.8464    6.0674 C   0  0  0  0  0  0  0  0  0  0  0  0
   -6.7437  -10.2763    1.0157 C   0  0  0  0  0  0  0  0  0  0  0  0
   -7.5327   -9.1056    1.0839 C   0  0  0  0  0  0  0  0  0  0  0  0
   -8.6998   -7.9917    3.0741 C   0  0  0  0  0  0  0  0  0  0  0  0
   -8.9252   -8.0931    4.4739 C   0  0  0  0  0  0  0  0  0  0  0  0
   -8.3773   -9.1842    5.2029 C   0  0  0  0  0  0  0  0  0  0  0  0
   -7.6039  -10.1704    4.5330 C   0  0  0  0  0  0  0  0  0  0  0  0
   -7.3673  -10.0582    3.1272 C   0  0  0  0  0  0  0  0  0  0  0  0
   -7.9090   -8.9797    2.4042 C   0  0  0  0  0  0  0  0  0  0  0  0
  1  6  1  0  0  0  0
  2  4  1  0  0  0  0
  3  7  1  0  0  0  0
  4  5  1  0  0  0  0
  6  2  1  0  0  0  0
  7  8  1  0  0  0  0
  8  9  1  0  0  0  0
  9 10  1  0  0  0  0
 10 11  1  0  0  0  0
 10 12  1  0  0  0  0
 11 13  1  0  0  0  0
 13 15  1  0  0  0  0
 14 12  1  0  0  0  0
 15 14  1  0  0  0  0
 16 18  2  0  0  0  0
 16 22  1  0  0  0  0
 17 23  1  0  0  0  0
 17 29  1  0  0  0  0
 18 19  1  0  0  0  0
 18 26  1  0  0  0  0
 19 20  2  0  0  0  0
 20  3  1  0  0  0  0
 20 21  1  0  0  0  0
 21  5  1  0  0  0  0
 21 22  2  0  0  0  0
 23 24  2  0  0  0  0
 24 30  1  0  0  0  0
 25 26  2  0  0  0  0
 25 30  1  0  0  0  0
 26 27  1  0  0  0  0
 27 28  2  0  0  0  0
 28 29  1  0  0  0  0
 29 30  2  0  0  0  0
M  END
>  <CHROM.1>
-142.80338213,-159.29490626,86.31958299,176.60839710,64.82648259,-72.97160528
-59.94020960,-110.05417443,-74.59000059,72.50337837,129.12289697,-9.89952517
-6.90680302,6.62693659,2.94463839,-1.13170874,2.20124513

>  <Name>
1uts_lig

>  <RI>
0

>  <Rbt.Current_Directory>
/home/itssahil/PROJECTS/Mol_Feturizer/New_Systems/rnas/1uts

>  <Rbt.Executable>
rbdock ($Id: //depot/dev/client3/rdock/2013.1/src/exe/rbdock.cxx#4 $)

>  <Rbt.Library>
libRbt.so (2013.1, Build901 2013/11/27)

>  <Rbt.Parameter_File>
/export/apps/rDock/src/rDock_2013.1_src/data/scripts/dock_solv.prm

>  <Rbt.Receptor>
prm/blind_docking_20.prm

>  <SCORE>
-25.9935

>  <SCORE.INTER>
-31.7723

>  <SCORE.INTER.CONST>
1

>  <SCORE.INTER.POLAR>
-3.80408

>  <SCORE.INTER.ROT>
10

>  <SCORE.INTER.SOLV>
7.31235

>  <SCORE.INTER.VDW>
-21.2054

>  <SCORE.INTER.norm>
-1.05908

>  <SCORE.INTRA>
3.94972

>  <SCORE.INTRA.DIHEDRAL>
-0.671467

>  <SCORE.INTRA.DIHEDRAL.0>
18.0451

>  <SCORE.INTRA.POLAR>
0.196815

>  <SCORE.INTRA.POLAR.0>
-0.196815

>  <SCORE.INTRA.REPUL>
0

>  <SCORE.INTRA.REPUL.0>
0

>  <SCORE.INTRA.SOLV>
0.371117

>  <SCORE.INTRA.SOLV.lig_0>
-14.7906

>  <SCORE.INTRA.VDW>
3.43072

>  <SCORE.INTRA.VDW.0>
-0.411701

>  <SCORE.INTRA.norm>
0.131657

>  <SCORE.RESTR>
1.82906

>  <SCORE.RESTR.CAVITY>
1.82906

>  <SCORE.RESTR.norm>
0.0609688

>  <SCORE.SYSTEM>
0

>  <SCORE.SYSTEM.CONST>
0

>  <SCORE.SYSTEM.DIHEDRAL>
0

>  <SCORE.SYSTEM.SOLV>
0

>  <SCORE.SYSTEM.norm>
0

>  <SCORE.heavy>
30

>  <SCORE.norm>
-0.866449

>  <RMSD>
18.530

$$$$
1uts_lig
 OpenBabel11021811413D
libRbt.so/2013.1/901 2013/11/27
 30 33  0  0  0  0  0  0  0  0999 V2000
  -10.1141   -9.7285   15.7833 N   0  0  0  0  0  0  0  0  0  0  0  0
  -10.9161   -9.2360   13.5136 C   0  0  0  0  0  0  0  0  0  0  0  0
  -10.5882   -6.0689   10.2822 C   0  0  0  0  0  0  0  0  0  0  0  0
  -10.7714   -8.2703   12.3339 C   0  0  0  0  0  0  0  0  0  0  0  0
   -9.3851   -8.1540   11.9811 O   0  0  0  0  0  0  0  0  0  0  0  0
  -10.1035   -8.7179   14.7016 C   0  0  0  0  0  0  0  0  0  0  0  0
  -12.0358   -6.3792   10.3020 N   0  0  0  0  0  0  0  0  0  0  0  0
  -12.8166   -5.1441   10.0267 C   0  0  0  0  0  0  0  0  0  0  0  0
  -13.4197   -5.2154    8.6207 C   0  0  0  0  0  0  0  0  0  0  0  0
  -12.3664   -5.5925    7.6515 N   0  0  0  0  0  0  0  0  0  0  0  0
  -12.1828   -4.4860    6.6686 C   0  0  0  0  0  0  0  0  0  0  0  0
  -12.7638   -6.8477    6.9533 C   0  0  0  0  0  0  0  0  0  0  0  0
  -11.0921   -4.8758    5.6578 C   0  0  0  0  0  0  0  0  0  0  0  0
  -11.6741   -7.2369    5.9382 C   0  0  0  0  0  0  0  0  0  0  0  0
  -11.4896   -6.1304    4.9584 N   0  0  0  0  0  0  0  0  0  0  0  0
   -8.3400   -9.4289    8.5879 C   0  0  0  0  0  0  0  0  0  0  0  0
   -8.0911   -8.8626    2.1879 N   0  0  0  0  0  0  0  0  0  0  0  0
   -8.9178   -8.4576    7.7359 C   0  0  0  0  0  0  0  0  0  0  0  0
   -9.6455   -7.3716    8.2915 C   0  0  0  0  0  0  0  0  0  0  0  0
   -9.7927   -7.2552    9.7010 C   0  0  0  0  0  0  0  0  0  0  0  0
   -9.2231   -8.2447   10.5575 C   0  0  0  0  0  0  0  0  0  0  0  0
   -8.4931   -9.3279    9.9958 C   0  0  0  0  0  0  0  0  0  0  0  0
   -6.8820   -8.1323    2.1374 C   0  0  0  0  0  0  0  0  0  0  0  0
   -6.5170   -7.6701    3.4223 C   0  0  0  0  0  0  0  0  0  0  0  0
   -7.6565   -7.9823    5.6956 C   0  0  0  0  0  0  0  0  0  0  0  0
   -8.7696   -8.5797    6.3471 C   0  0  0  0  0  0  0  0  0  0  0  0
   -9.7282   -9.3070    5.5891 C   0  0  0  0  0  0  0  0  0  0  0  0
   -9.5719   -9.4379    4.1827 C   0  0  0  0  0  0  0  0  0  0  0  0
   -8.4436   -8.8474    3.5321 C   0  0  0  0  0  0  0  0  0  0  0  0
   -7.4946   -8.1271    4.2803 C   0  0  0  0  0  0  0  0  0  0  0  0
  1  6  1  0  0  0  0
  2  4  1  0  0  0  0
  3  7  1  0  0  0  0
  4  5  1  0  0  0  0
  6  2  1  0  0  0  0
  7  8  1  0  0  0  0
  8  9  1  0  0  0  0
  9 10  1  0  0  0  0
 10 11  1  0  0  0  0
 10 12  1  0  0  0  0
 11 13  1  0  0  0  0
 13 15  1  0  0  0  0
 14 12  1  0  0  0  0
 15 14  1  0  0  0  0
 16 18  2  0  0  0  0
 16 22  1  0  0  0  0
 17 23  1  0  0  0  0
 17 29  1  0  0  0  0
 18 19  1  0  0  0  0
 18 26  1  0  0  0  0
 19 20  2  0  0  0  0
 20  3  1  0  0  0  0
 20 21  1  0  0  0  0
 21  5  1  0  0  0  0
 21 22  2  0  0  0  0
 23 24  2  0  0  0  0
 24 30  1  0  0  0  0
 25 26  2  0  0  0  0
 25 30  1  0  0  0  0
 26 27  1  0  0  0  0
 27 28  2  0  0  0  0
 28 29  1  0  0  0  0
 29 30  2  0  0  0  0
M  END
>  <CHROM.1>
-54.43724806,58.79787341,-144.97576773,134.44030692,-173.36956583,107.64301003
-49.48627943,-117.58247388,-89.83984668,84.85776835,63.73860617,-10.06055631
-7.60902839,8.04321605,-1.84202528,0.69732163,-1.36105540

>  <Name>
1uts_lig

>  <RI>
0

>  <Rbt.Current_Directory>
/home/itssahil/PROJECTS/Mol_Feturizer/New_Systems/rnas/1uts

>  <Rbt.Executable>
rbdock ($Id: //depot/dev/client3/rdock/2013.1/src/exe/rbdock.cxx#4 $)

>  <Rbt.Library>
libRbt.so (2013.1, Build901 2013/11/27)

>  <Rbt.Parameter_File>
/export/apps/rDock/src/rDock_2013.1_src/data/scripts/dock_solv.prm

>  <Rbt.Receptor>
prm/blind_docking_20.prm

>  <SCORE>
-16.6266

>  <SCORE.INTER>
-27.2916

>  <SCORE.INTER.CONST>
1

>  <SCORE.INTER.POLAR>
-2.5126

>  <SCORE.INTER.ROT>
10

>  <SCORE.INTER.SOLV>
9.39177

>  <SCORE.INTER.VDW>
-23.2163

>  <SCORE.INTER.norm>
-0.909721

>  <SCORE.INTRA>
6.36377

>  <SCORE.INTRA.DIHEDRAL>
7.31729

>  <SCORE.INTRA.DIHEDRAL.0>
18.0451

>  <SCORE.INTRA.POLAR>
0.196815

>  <SCORE.INTRA.POLAR.0>
-0.196815

>  <SCORE.INTRA.REPUL>
0

>  <SCORE.INTRA.REPUL.0>
0

>  <SCORE.INTRA.SOLV>
0.350367

>  <SCORE.INTRA.SOLV.lig_0>
-14.7906

>  <SCORE.INTRA.VDW>
1.86077

>  <SCORE.INTRA.VDW.0>
-0.411701

>  <SCORE.INTRA.norm>
0.212126

>  <SCORE.RESTR>
4.30125

>  <SCORE.RESTR.CAVITY>
4.30125

>  <SCORE.RESTR.norm>
0.143375

>  <SCORE.SYSTEM>
0

>  <SCORE.SYSTEM.CONST>
0

>  <SCORE.SYSTEM.DIHEDRAL>
0

>  <SCORE.SYSTEM.SOLV>
0

>  <SCORE.SYSTEM.norm>
0

>  <SCORE.heavy>
30

>  <SCORE.norm>
-0.55422

>  <RMSD>
18.558

$$$$
1uts_lig
 OpenBabel11021811413D
libRbt.so/2013.1/901 2013/11/27
 30 33  0  0  0  0  0  0  0  0999 V2000
   -9.5412   -8.6534   14.4032 N   0  0  0  0  0  0  0  0  0  0  0  0
  -11.2637   -6.9259   14.1102 C   0  0  0  0  0  0  0  0  0  0  0  0
  -11.8375   -5.5264    9.2051 C   0  0  0  0  0  0  0  0  0  0  0  0
  -11.0301   -6.2957   12.7341 C   0  0  0  0  0  0  0  0  0  0  0  0
  -11.7824   -7.0159   11.7466 O   0  0  0  0  0  0  0  0  0  0  0  0
  -10.9591   -8.4236   14.0452 C   0  0  0  0  0  0  0  0  0  0  0  0
  -12.7933   -5.7943    8.1066 N   0  0  0  0  0  0  0  0  0  0  0  0
  -12.7925   -4.6536    7.1527 C   0  0  0  0  0  0  0  0  0  0  0  0
  -13.0519   -5.1657    5.7329 C   0  0  0  0  0  0  0  0  0  0  0  0
  -11.7620   -5.4850    5.0810 N   0  0  0  0  0  0  0  0  0  0  0  0
  -10.6471   -5.1997    6.0295 C   0  0  0  0  0  0  0  0  0  0  0  0
  -11.6164   -4.6647    3.8454 C   0  0  0  0  0  0  0  0  0  0  0  0
   -9.3052   -5.5264    5.3544 C   0  0  0  0  0  0  0  0  0  0  0  0
  -10.2713   -4.9884    3.1705 C   0  0  0  0  0  0  0  0  0  0  0  0
   -9.1585   -4.7054    4.1192 N   0  0  0  0  0  0  0  0  0  0  0  0
   -9.2274   -8.9970    9.8026 C   0  0  0  0  0  0  0  0  0  0  0  0
   -6.1168  -10.2279    4.2881 N   0  0  0  0  0  0  0  0  0  0  0  0
   -9.2372   -8.3195    8.5600 C   0  0  0  0  0  0  0  0  0  0  0  0
  -10.0857   -7.1959    8.3729 C   0  0  0  0  0  0  0  0  0  0  0  0
  -10.9231   -6.7474    9.4309 C   0  0  0  0  0  0  0  0  0  0  0  0
  -10.9237   -7.4419   10.6778 C   0  0  0  0  0  0  0  0  0  0  0  0
  -10.0700   -8.5642   10.8603 C   0  0  0  0  0  0  0  0  0  0  0  0
   -7.0780  -11.1145    3.7517 C   0  0  0  0  0  0  0  0  0  0  0  0
   -8.2631  -11.1009    4.5219 C   0  0  0  0  0  0  0  0  0  0  0  0
   -8.8837   -9.7497    6.6082 C   0  0  0  0  0  0  0  0  0  0  0  0
   -8.4098   -8.7684    7.5209 C   0  0  0  0  0  0  0  0  0  0  0  0
   -7.0985   -8.2383    7.3741 C   0  0  0  0  0  0  0  0  0  0  0  0
   -6.2642   -8.6874    6.3149 C   0  0  0  0  0  0  0  0  0  0  0  0
   -6.7489   -9.6645    5.3900 C   0  0  0  0  0  0  0  0  0  0  0  0
   -8.0457  -10.1906    5.5341 C   0  0  0  0  0  0  0  0  0  0  0  0
  1  6  1  0  0  0  0
  2  4  1  0  0  0  0
  3  7  1  0  0  0  0
  4  5  1  0  0  0  0
  6  2  1  0  0  0  0
  7  8  1  0  0  0  0
  8  9  1  0  0  0  0
  9 10  1  0  0  0  0
 10 11  1  0  0  0  0
 10 12  1  0  0  0  0
 11 13  1  0  0  0  0
 13 15  1  0  0  0  0
 14 12  1  0  0  0  0
 15 14  1  0  0  0  0
 16 18  2  0  0  0  0
 16 22  1  0  0  0  0
 17 23  1  0  0  0  0
 17 29  1  0  0  0  0
 18 19  1  0  0  0  0
 18 26  1  0  0  0  0
 19 20  2  0  0  0  0
 20  3  1  0  0  0  0
 20 21  1  0  0  0  0
 21  5  1  0  0  0  0
 21 22  2  0  0  0  0
 23 24  2  0  0  0  0
 24 30  1  0  0  0  0
 25 26  2  0  0  0  0
 25 30  1  0  0  0  0
 26 27  1  0  0  0  0
 27 28  2  0  0  0  0
 28 29  1  0  0  0  0
 29 30  2  0  0  0  0
M  END
>  <CHROM.1>
61.06110958,53.63666894,-131.40315836,-126.22719318,91.54190845,147.07847030
-90.32401930,0.02214678,89.15643955,60.72845873,-102.91124747,-9.90025580
-7.39244919,7.83915726,-1.98426385,0.81831991,-1.31329798

>  <Name>
1uts_lig

>  <RI>
0

>  <Rbt.Current_Directory>
/home/itssahil/PROJECTS/Mol_Feturizer/New_Systems/rnas/1uts

>  <Rbt.Executable>
rbdock ($Id: //depot/dev/client3/rdock/2013.1/src/exe/rbdock.cxx#4 $)

>  <Rbt.Library>
libRbt.so (2013.1, Build901 2013/11/27)

>  <Rbt.Parameter_File>
/export/apps/rDock/src/rDock_2013.1_src/data/scripts/dock_solv.prm

>  <Rbt.Receptor>
prm/blind_docking_100.prm

>  <SCORE>
-5.79891

>  <SCORE.INTER>
-27.0685

>  <SCORE.INTER.CONST>
1

>  <SCORE.INTER.POLAR>
-1.47285

>  <SCORE.INTER.ROT>
10

>  <SCORE.INTER.SOLV>
9.53028

>  <SCORE.INTER.VDW>
-26.5796

>  <SCORE.INTER.norm>
-0.902282

>  <SCORE.INTRA>
18.0448

>  <SCORE.INTRA.DIHEDRAL>
13.9385

>  <SCORE.INTRA.DIHEDRAL.0>
18.0451

>  <SCORE.INTRA.POLAR>
0.196815

>  <SCORE.INTRA.POLAR.0>
-0.196815

>  <SCORE.INTRA.REPUL>
0

>  <SCORE.INTRA.REPUL.0>
0

>  <SCORE.INTRA.SOLV>
0.0193158

>  <SCORE.INTRA.SOLV.lig_0>
-14.7906

>  <SCORE.INTRA.VDW>
10.3968

>  <SCORE.INTRA.VDW.0>
-0.411701

>  <SCORE.INTRA.norm>
0.601494

>  <SCORE.RESTR>
3.22474

>  <SCORE.RESTR.CAVITY>
3.22474

>  <SCORE.RESTR.norm>
0.107491

>  <SCORE.SYSTEM>
0

>  <SCORE.SYSTEM.CONST>
0

>  <SCORE.SYSTEM.DIHEDRAL>
0

>  <SCORE.SYSTEM.SOLV>
0

>  <SCORE.SYSTEM.norm>
0

>  <SCORE.heavy>
30

>  <SCORE.norm>
-0.193297

>  <RMSD>
18.615

$$$$
1uts_lig
 OpenBabel11021811413D
libRbt.so/2013.1/901 2013/11/27
 30 33  0  0  0  0  0  0  0  0999 V2000
  -11.4712   -6.7356   14.2515 N   0  0  0  0  0  0  0  0  0  0  0  0
  -10.4927   -8.4830   12.8281 C   0  0  0  0  0  0  0  0  0  0  0  0
  -11.2243   -7.3087    8.8216 C   0  0  0  0  0  0  0  0  0  0  0  0
  -10.1125   -8.8413   11.3885 C   0  0  0  0  0  0  0  0  0  0  0  0
   -9.1922   -7.8635   10.8817 O   0  0  0  0  0  0  0  0  0  0  0  0
  -11.1753   -7.1142   12.8513 C   0  0  0  0  0  0  0  0  0  0  0  0
  -11.0856   -6.0401    9.5725 N   0  0  0  0  0  0  0  0  0  0  0  0
  -11.6925   -4.9283    8.7937 C   0  0  0  0  0  0  0  0  0  0  0  0
  -10.5955   -4.1496    8.0618 C   0  0  0  0  0  0  0  0  0  0  0  0
  -10.1989   -4.8869    6.8412 N   0  0  0  0  0  0  0  0  0  0  0  0
   -9.0338   -4.2031    6.2096 C   0  0  0  0  0  0  0  0  0  0  0  0
  -11.3500   -4.9330    5.8958 C   0  0  0  0  0  0  0  0  0  0  0  0
   -8.6214   -4.9640    4.9391 C   0  0  0  0  0  0  0  0  0  0  0  0
  -10.9370   -5.6915    4.6216 C   0  0  0  0  0  0  0  0  0  0  0  0
   -9.7718   -5.0093    3.9927 N   0  0  0  0  0  0  0  0  0  0  0  0
   -7.2898   -8.9572    7.8131 C   0  0  0  0  0  0  0  0  0  0  0  0
   -6.9305  -10.1674    1.5218 N   0  0  0  0  0  0  0  0  0  0  0  0
   -8.2449   -8.7217    6.7953 C   0  0  0  0  0  0  0  0  0  0  0  0
   -9.5181   -8.1878    7.1291 C   0  0  0  0  0  0  0  0  0  0  0  0
   -9.8354   -7.8861    8.4819 C   0  0  0  0  0  0  0  0  0  0  0  0
   -8.8768   -8.1395    9.5086 C   0  0  0  0  0  0  0  0  0  0  0  0
   -7.6028   -8.6712    9.1682 C   0  0  0  0  0  0  0  0  0  0  0  0
   -6.4366  -11.4594    1.8126 C   0  0  0  0  0  0  0  0  0  0  0  0
   -6.4913  -11.7207    3.2005 C   0  0  0  0  0  0  0  0  0  0  0  0
   -7.3408  -10.2775    5.1395 C   0  0  0  0  0  0  0  0  0  0  0  0
   -7.9254   -9.0231    5.4639 C   0  0  0  0  0  0  0  0  0  0  0  0
   -8.1917   -8.0779    4.4354 C   0  0  0  0  0  0  0  0  0  0  0  0
   -7.8759   -8.3883    3.0850 C   0  0  0  0  0  0  0  0  0  0  0  0
   -7.3007   -9.6565    2.7600 C   0  0  0  0  0  0  0  0  0  0  0  0
   -7.0359  -10.5927    3.7764 C   0  0  0  0  0  0  0  0  0  0  0  0
  1  6  1  0  0  0  0
  2  4  1  0  0  0  0
  3  7  1  0  0  0  0
  4  5  1  0  0  0  0
  6  2  1  0  0  0  0
  7  8  1  0  0  0  0
  8  9  1  0  0  0  0
  9 10  1  0  0  0  0
 10 11  1  0  0  0  0
 10 12  1  0  0  0  0
 11 13  1  0  0  0  0
 13 15  1  0  0  0  0
 14 12  1  0  0  0  0
 15 14  1  0  0  0  0
 16 18  2  0  0  0  0
 16 22  1  0  0  0  0
 17 23  1  0  0  0  0
 17 29  1  0  0  0  0
 18 19  1  0  0  0  0
 18 26  1  0  0  0  0
 19 20  2  0  0  0  0
 20  3  1  0  0  0  0
 20 21  1  0  0  0  0
 21  5  1  0  0  0  0
 21 22  2  0  0  0  0
 23 24  2  0  0  0  0
 24 30  1  0  0  0  0
 25 26  2  0  0  0  0
 25 30  1  0  0  0  0
 26 27  1  0  0  0  0
 27 28  2  0  0  0  0
 28 29  1  0  0  0  0
 29 30  2  0  0  0  0
M  END
>  <CHROM.1>
-28.29900445,61.14726058,118.04396713,-176.93323387,-176.76085338,-99.51276205
79.45112015,-174.02797907,47.70229524,-125.34868956,73.35071230,-9.21167161
-7.60086984,7.11844877,-2.38273248,1.04773229,-1.14392122

>  <Name>
1uts_lig

>  <RI>
0

>  <Rbt.Current_Directory>
/home/itssahil/PROJECTS/Mol_Feturizer/New_Systems/rnas/1uts

>  <Rbt.Executable>
rbdock ($Id: //depot/dev/client3/rdock/2013.1/src/exe/rbdock.cxx#4 $)

>  <Rbt.Library>
libRbt.so (2013.1, Build901 2013/11/27)

>  <Rbt.Parameter_File>
/export/apps/rDock/src/rDock_2013.1_src/data/scripts/dock_solv.prm

>  <Rbt.Receptor>
prm/blind_docking_20.prm

>  <SCORE>
-21.5275

>  <SCORE.INTER>
-25.414

>  <SCORE.INTER.CONST>
1

>  <SCORE.INTER.POLAR>
-1.38563

>  <SCORE.INTER.ROT>
10

>  <SCORE.INTER.SOLV>
8.08039

>  <SCORE.INTER.VDW>
-25.284

>  <SCORE.INTER.norm>
-0.847132

>  <SCORE.INTRA>
-0.128223

>  <SCORE.INTRA.DIHEDRAL>
-0.615176

>  <SCORE.INTRA.DIHEDRAL.0>
18.0451

>  <SCORE.INTRA.POLAR>
0.194647

>  <SCORE.INTRA.POLAR.0>
-0.196815

>  <SCORE.INTRA.REPUL>
0

>  <SCORE.INTRA.REPUL.0>
0

>  <SCORE.INTRA.SOLV>
0.395288

>  <SCORE.INTRA.SOLV.lig_0>
-14.7906

>  <SCORE.INTRA.VDW>
-0.680081

>  <SCORE.INTRA.VDW.0>
-0.411701

>  <SCORE.INTRA.norm>
-0.00427411

>  <SCORE.RESTR>
4.01468

>  <SCORE.RESTR.CAVITY>
4.01468

>  <SCORE.RESTR.norm>
0.133823

>  <SCORE.SYSTEM>
0

>  <SCORE.SYSTEM.CONST>
0

>  <SCORE.SYSTEM.DIHEDRAL>
0

>  <SCORE.SYSTEM.SOLV>
0

>  <SCORE.SYSTEM.norm>
0

>  <SCORE.heavy>
30

>  <SCORE.norm>
-0.717583

>  <RMSD>
18.626

$$$$
1uts_lig
 OpenBabel11021811413D
libRbt.so/2013.1/901 2013/11/27
 30 33  0  0  0  0  0  0  0  0999 V2000
  -10.6507   -8.9480   13.8946 N   0  0  0  0  0  0  0  0  0  0  0  0
  -10.3261   -8.8040   11.4633 C   0  0  0  0  0  0  0  0  0  0  0  0
  -10.9455   -6.8955    7.8132 C   0  0  0  0  0  0  0  0  0  0  0  0
   -9.0487   -7.9773   11.2899 C   0  0  0  0  0  0  0  0  0  0  0  0
   -9.2151   -7.0685   10.1916 O   0  0  0  0  0  0  0  0  0  0  0  0
  -11.1183   -8.2764   12.6609 C   0  0  0  0  0  0  0  0  0  0  0  0
  -10.7634   -5.4421    7.5973 N   0  0  0  0  0  0  0  0  0  0  0  0
   -9.9050   -4.8796    8.6733 C   0  0  0  0  0  0  0  0  0  0  0  0
   -9.9427   -3.3495    8.6190 C   0  0  0  0  0  0  0  0  0  0  0  0
  -11.3455   -2.8956    8.4886 N   0  0  0  0  0  0  0  0  0  0  0  0
  -11.3919   -1.4078    8.5782 C   0  0  0  0  0  0  0  0  0  0  0  0
  -12.1657   -3.5078    9.5719 C   0  0  0  0  0  0  0  0  0  0  0  0
  -12.8481   -0.9328    8.4470 C   0  0  0  0  0  0  0  0  0  0  0  0
  -13.6233   -3.0299    9.4437 C   0  0  0  0  0  0  0  0  0  0  0  0
  -13.6686   -1.5438    9.5309 N   0  0  0  0  0  0  0  0  0  0  0  0
   -7.0794   -8.9593    7.7228 C   0  0  0  0  0  0  0  0  0  0  0  0
   -6.0213  -11.5935    1.9847 N   0  0  0  0  0  0  0  0  0  0  0  0
   -7.8892   -8.9142    6.5629 C   0  0  0  0  0  0  0  0  0  0  0  0
   -9.1411   -8.2441    6.5992 C   0  0  0  0  0  0  0  0  0  0  0  0
   -9.5822   -7.6158    7.7961 C   0  0  0  0  0  0  0  0  0  0  0  0
   -8.7714   -7.6765    8.9691 C   0  0  0  0  0  0  0  0  0  0  0  0
   -7.5177   -8.3460    8.9260 C   0  0  0  0  0  0  0  0  0  0  0  0
   -5.1753  -12.5091    2.6509 C   0  0  0  0  0  0  0  0  0  0  0  0
   -5.1980  -12.2938    4.0476 C   0  0  0  0  0  0  0  0  0  0  0  0
   -6.5058  -10.5989    5.4551 C   0  0  0  0  0  0  0  0  0  0  0  0
   -7.4483   -9.5372    5.3869 C   0  0  0  0  0  0  0  0  0  0  0  0
   -7.9482   -9.1131    4.1249 C   0  0  0  0  0  0  0  0  0  0  0  0
   -7.5075   -9.7517    2.9343 C   0  0  0  0  0  0  0  0  0  0  0  0
   -6.5697  -10.8288    3.0073 C   0  0  0  0  0  0  0  0  0  0  0  0
   -6.0736  -11.2493    4.2549 C   0  0  0  0  0  0  0  0  0  0  0  0
  1  6  1  0  0  0  0
  2  4  1  0  0  0  0
  3  7  1  0  0  0  0
  4  5  1  0  0  0  0
  6  2  1  0  0  0  0
  7  8  1  0  0  0  0
  8  9  1  0  0  0  0
  9 10  1  0  0  0  0
 10 11  1  0  0  0  0
 10 12  1  0  0  0  0
 11 13  1  0  0  0  0
 13 15  1  0  0  0  0
 14 12  1  0  0  0  0
 15 14  1  0  0  0  0
 16 18  2  0  0  0  0
 16 22  1  0  0  0  0
 17 23  1  0  0  0  0
 17 29  1  0  0  0  0
 18 19  1  0  0  0  0
 18 26  1  0  0  0  0
 19 20  2  0  0  0  0
 20  3  1  0  0  0  0
 20 21  1  0  0  0  0
 21  5  1  0  0  0  0
 21 22  2  0  0  0  0
 23 24  2  0  0  0  0
 24 30  1  0  0  0  0
 25 26  2  0  0  0  0
 25 30  1  0  0  0  0
 26 27  1  0  0  0  0
 27 28  2  0  0  0  0
 28 29  1  0  0  0  0
 29 30  2  0  0  0  0
M  END
>  <CHROM.1>
65.95995445,-103.64765766,-59.87969374,-90.66401309,-87.71870800,-168.71349957
46.80867300,174.18383002,23.76218195,-97.18702983,132.44915935,-9.30606215
-7.26976284,7.70094834,-2.96518445,1.02703532,-1.10631155

>  <Name>
1uts_lig

>  <RI>
0

>  <Rbt.Current_Directory>
/home/itssahil/PROJECTS/Mol_Feturizer/New_Systems/rnas/1uts

>  <Rbt.Executable>
rbdock ($Id: //depot/dev/client3/rdock/2013.1/src/exe/rbdock.cxx#4 $)

>  <Rbt.Library>
libRbt.so (2013.1, Build901 2013/11/27)

>  <Rbt.Parameter_File>
/export/apps/rDock/src/rDock_2013.1_src/data/scripts/dock_solv.prm

>  <Rbt.Receptor>
prm/blind_docking_20.prm

>  <SCORE>
-14.5877

>  <SCORE.INTER>
-24.3423

>  <SCORE.INTER.CONST>
1

>  <SCORE.INTER.POLAR>
-1.53303

>  <SCORE.INTER.ROT>
10

>  <SCORE.INTER.SOLV>
8.58166

>  <SCORE.INTER.VDW>
-24.2453

>  <SCORE.INTER.norm>
-0.811411

>  <SCORE.INTRA>
5.61308

>  <SCORE.INTRA.DIHEDRAL>
-2.10696

>  <SCORE.INTRA.DIHEDRAL.0>
18.0451

>  <SCORE.INTRA.POLAR>
0.196815

>  <SCORE.INTRA.POLAR.0>
-0.196815

>  <SCORE.INTRA.REPUL>
0

>  <SCORE.INTRA.REPUL.0>
0

>  <SCORE.INTRA.SOLV>
-0.00554488

>  <SCORE.INTRA.SOLV.lig_0>
-14.7906

>  <SCORE.INTRA.VDW>
6.00016

>  <SCORE.INTRA.VDW.0>
-0.411701

>  <SCORE.INTRA.norm>
0.187103

>  <SCORE.RESTR>
4.14153

>  <SCORE.RESTR.CAVITY>
4.14153

>  <SCORE.RESTR.norm>
0.138051

>  <SCORE.SYSTEM>
0

>  <SCORE.SYSTEM.CONST>
0

>  <SCORE.SYSTEM.DIHEDRAL>
0

>  <SCORE.SYSTEM.SOLV>
0

>  <SCORE.SYSTEM.norm>
0

>  <SCORE.heavy>
30

>  <SCORE.norm>
-0.486258

>  <RMSD>
18.626

$$$$
1uts_lig
 OpenBabel11021811413D
libRbt.so/2013.1/901 2013/11/27
 30 33  0  0  0  0  0  0  0  0999 V2000
  -10.7052   -7.6913   13.4720 N   0  0  0  0  0  0  0  0  0  0  0  0
  -10.3184   -8.7468   11.2872 C   0  0  0  0  0  0  0  0  0  0  0  0
  -10.8197   -8.0421    7.7898 C   0  0  0  0  0  0  0  0  0  0  0  0
   -9.2097   -9.2500   10.3583 C   0  0  0  0  0  0  0  0  0  0  0  0
   -8.5870   -8.1310    9.7103 O   0  0  0  0  0  0  0  0  0  0  0  0
   -9.7061   -7.8919   12.3982 C   0  0  0  0  0  0  0  0  0  0  0  0
  -10.9735   -6.5728    7.8877 N   0  0  0  0  0  0  0  0  0  0  0  0
  -10.3298   -6.0838    9.1356 C   0  0  0  0  0  0  0  0  0  0  0  0
   -9.6891   -4.7153    8.8860 C   0  0  0  0  0  0  0  0  0  0  0  0
  -10.6574   -3.6487    9.2260 N   0  0  0  0  0  0  0  0  0  0  0  0
  -11.8048   -3.7038    8.2751 C   0  0  0  0  0  0  0  0  0  0  0  0
   -9.9804   -2.3234    9.1479 C   0  0  0  0  0  0  0  0  0  0  0  0
  -12.8110   -2.5948    8.6229 C   0  0  0  0  0  0  0  0  0  0  0  0
  -10.9879   -1.2117    9.4923 C   0  0  0  0  0  0  0  0  0  0  0  0
  -12.1347   -1.2690    8.5437 N   0  0  0  0  0  0  0  0  0  0  0  0
   -6.7434   -9.0843    6.5601 C   0  0  0  0  0  0  0  0  0  0  0  0
   -6.7026  -10.1349    0.1957 N   0  0  0  0  0  0  0  0  0  0  0  0
   -7.7919   -9.0705    5.6094 C   0  0  0  0  0  0  0  0  0  0  0  0
   -9.1106   -8.7324    6.0147 C   0  0  0  0  0  0  0  0  0  0  0  0
   -9.3803   -8.4046    7.3718 C   0  0  0  0  0  0  0  0  0  0  0  0
   -8.3247   -8.4350    8.3319 C   0  0  0  0  0  0  0  0  0  0  0  0
   -7.0061   -8.7713    7.9198 C   0  0  0  0  0  0  0  0  0  0  0  0
   -6.9980   -8.8443   -0.2992 C   0  0  0  0  0  0  0  0  0  0  0  0
   -7.4186   -7.9875    0.7433 C   0  0  0  0  0  0  0  0  0  0  0  0
   -7.6718   -8.4148    3.2567 C   0  0  0  0  0  0  0  0  0  0  0  0
   -7.5186   -9.3963    4.2735 C   0  0  0  0  0  0  0  0  0  0  0  0
   -7.0811  -10.7061    3.9342 C   0  0  0  0  0  0  0  0  0  0  0  0
   -6.7954  -11.0324    2.5808 C   0  0  0  0  0  0  0  0  0  0  0  0
   -6.9373  -10.0389    1.5621 C   0  0  0  0  0  0  0  0  0  0  0  0
   -7.3706   -8.7426    1.8958 C   0  0  0  0  0  0  0  0  0  0  0  0
  1  6  1  0  0  0  0
  2  4  1  0  0  0  0
  3  7  1  0  0  0  0
  4  5  1  0  0  0  0
  6  2  1  0  0  0  0
  7  8  1  0  0  0  0
  8  9  1  0  0  0  0
  9 10  1  0  0  0  0
 10 11  1  0  0  0  0
 10 12  1  0  0  0  0
 11 13  1  0  0  0  0
 13 15  1  0  0  0  0
 14 12  1  0  0  0  0
 15 14  1  0  0  0  0
 16 18  2  0  0  0  0
 16 22  1  0  0  0  0
 17 23  1  0  0  0  0
 17 29  1  0  0  0  0
 18 19  1  0  0  0  0
 18 26  1  0  0  0  0
 19 20  2  0  0  0  0
 20  3  1  0  0  0  0
 20 21  1  0  0  0  0
 21  5  1  0  0  0  0
 21 22  2  0  0  0  0
 23 24  2  0  0  0  0
 24 30  1  0  0  0  0
 25 26  2  0  0  0  0
 25 30  1  0  0  0  0
 26 27  1  0  0  0  0
 27 28  2  0  0  0  0
 28 29  1  0  0  0  0
 29 30  2  0  0  0  0
M  END
>  <CHROM.1>
65.95648152,-63.80937354,-75.79717217,-139.12744903,-165.86544979,144.19348326
92.19996518,-66.08686545,-115.16760518,-99.93102554,77.39183504,-9.15599105
-7.20554295,6.98740956,-2.64603947,1.12945730,-1.09575962

>  <Name>
1uts_lig

>  <RI>
0

>  <Rbt.Current_Directory>
/home/itssahil/PROJECTS/Mol_Feturizer/New_Systems/rnas/1uts

>  <Rbt.Executable>
rbdock ($Id: //depot/dev/client3/rdock/2013.1/src/exe/rbdock.cxx#4 $)

>  <Rbt.Library>
libRbt.so (2013.1, Build901 2013/11/27)

>  <Rbt.Parameter_File>
/export/apps/rDock/src/rDock_2013.1_src/data/scripts/dock_solv.prm

>  <Rbt.Receptor>
prm/blind_docking_20.prm

>  <SCORE>
-16.7157

>  <SCORE.INTER>
-21.6423

>  <SCORE.INTER.CONST>
1

>  <SCORE.INTER.POLAR>
-0.718579

>  <SCORE.INTER.ROT>
10

>  <SCORE.INTER.SOLV>
7.22998

>  <SCORE.INTER.VDW>
-24.7096

>  <SCORE.INTER.norm>
-0.721411

>  <SCORE.INTRA>
2.80165

>  <SCORE.INTRA.DIHEDRAL>
3.66849

>  <SCORE.INTRA.DIHEDRAL.0>
18.0451

>  <SCORE.INTRA.POLAR>
0.196815

>  <SCORE.INTRA.POLAR.0>
-0.196815

>  <SCORE.INTRA.REPUL>
0

>  <SCORE.INTRA.REPUL.0>
0

>  <SCORE.INTRA.SOLV>
-0.127468

>  <SCORE.INTRA.SOLV.lig_0>
-14.7906

>  <SCORE.INTRA.VDW>
0.361965

>  <SCORE.INTRA.VDW.0>
-0.411701

>  <SCORE.INTRA.norm>
0.0933883

>  <SCORE.RESTR>
2.12497

>  <SCORE.RESTR.CAVITY>
2.12497

>  <SCORE.RESTR.norm>
0.0708324

>  <SCORE.SYSTEM>
0

>  <SCORE.SYSTEM.CONST>
0

>  <SCORE.SYSTEM.DIHEDRAL>
0

>  <SCORE.SYSTEM.SOLV>
0

>  <SCORE.SYSTEM.norm>
0

>  <SCORE.heavy>
30

>  <SCORE.norm>
-0.55719

>  <RMSD>
18.636

$$$$
1uts_lig
 OpenBabel11021811413D
libRbt.so/2013.1/901 2013/11/27
 30 33  0  0  0  0  0  0  0  0999 V2000
   -8.7270   -9.1625    2.1573 N   0  0  0  0  0  0  0  0  0  0  0  0
   -7.1008  -10.1176    3.7324 C   0  0  0  0  0  0  0  0  0  0  0  0
   -7.0038   -8.8161    6.5968 C   0  0  0  0  0  0  0  0  0  0  0  0
   -7.9348  -11.3373    4.1349 C   0  0  0  0  0  0  0  0  0  0  0  0
   -8.1317  -11.3314    5.5565 O   0  0  0  0  0  0  0  0  0  0  0  0
   -7.3803   -9.7669    2.2698 C   0  0  0  0  0  0  0  0  0  0  0  0
   -6.6228   -8.8397    8.0273 N   0  0  0  0  0  0  0  0  0  0  0  0
   -7.7868   -9.2653    8.8487 C   0  0  0  0  0  0  0  0  0  0  0  0
   -7.9421   -8.3295   10.0510 C   0  0  0  0  0  0  0  0  0  0  0  0
   -9.3267   -7.8080   10.0938 N   0  0  0  0  0  0  0  0  0  0  0  0
   -9.3386   -6.4016    9.5982 C   0  0  0  0  0  0  0  0  0  0  0  0
   -9.8353   -7.8706   11.4932 C   0  0  0  0  0  0  0  0  0  0  0  0
  -10.7748   -5.8552    9.6448 C   0  0  0  0  0  0  0  0  0  0  0  0
  -11.2720   -7.3203   11.5418 C   0  0  0  0  0  0  0  0  0  0  0  0
  -11.2835   -5.9164   11.0444 N   0  0  0  0  0  0  0  0  0  0  0  0
  -11.3251   -9.4214    6.1779 C   0  0  0  0  0  0  0  0  0  0  0  0
  -14.4874   -4.3047    8.4310 N   0  0  0  0  0  0  0  0  0  0  0  0
  -10.8242   -8.2045    6.6990 C   0  0  0  0  0  0  0  0  0  0  0  0
   -9.4229   -8.0150    6.8325 C   0  0  0  0  0  0  0  0  0  0  0  0
   -8.5212   -9.0427    6.4415 C   0  0  0  0  0  0  0  0  0  0  0  0
   -9.0290  -10.2753    5.9316 C   0  0  0  0  0  0  0  0  0  0  0  0
  -10.4326  -10.4581    5.7973 C   0  0  0  0  0  0  0  0  0  0  0  0
  -15.1872   -5.1183    9.3509 C   0  0  0  0  0  0  0  0  0  0  0  0
  -14.6677   -6.4328    9.3597 C   0  0  0  0  0  0  0  0  0  0  0  0
  -12.7303   -7.4718    8.0441 C   0  0  0  0  0  0  0  0  0  0  0  0
  -11.7193   -7.1963    7.0837 C   0  0  0  0  0  0  0  0  0  0  0  0
  -11.6132   -5.8953    6.5194 C   0  0  0  0  0  0  0  0  0  0  0  0
  -12.5154   -4.8718    6.9171 C   0  0  0  0  0  0  0  0  0  0  0  0
  -13.5226   -5.1483    7.8938 C   0  0  0  0  0  0  0  0  0  0  0  0
  -13.6295   -6.4350    8.4527 C   0  0  0  0  0  0  0  0  0  0  0  0
  1  6  1  0  0  0  0
  2  4  1  0  0  0  0
  3  7  1  0  0  0  0
  4  5  1  0  0  0  0
  6  2  1  0  0  0  0
  7  8  1  0  0  0  0
  8  9  1  0  0  0  0
  9 10  1  0  0  0  0
 10 11  1  0  0  0  0
 10 12  1  0  0  0  0
 11 13  1  0  0  0  0
 13 15  1  0  0  0  0
 14 12  1  0  0  0  0
 15 14  1  0  0  0  0
 16 18  2  0  0  0  0
 16 22  1  0  0  0  0
 17 23  1  0  0  0  0
 17 29  1  0  0  0  0
 18 19  1  0  0  0  0
 18 26  1  0  0  0  0
 19 20  2  0  0  0  0
 20  3  1  0  0  0  0
 20 21  1  0  0  0  0
 21  5  1  0  0  0  0
 21 22  2  0  0  0  0
 23 24  2  0  0  0  0
 24 30  1  0  0  0  0
 25 26  2  0  0  0  0
 25 30  1  0  0  0  0
 26 27  1  0  0  0  0
 27 28  2  0  0  0  0
 28 29  1  0  0  0  0
 29 30  2  0  0  0  0
M  END
>  <CHROM.1>
168.26275589,-155.66459238,7.99271843,70.71195145,72.89611881,-133.39584119
127.06578925,-103.40180543,56.44244717,71.33417115,-99.44159702,-10.24767392
-7.90629002,7.48556073,0.77627986,0.52519307,-1.82402042

>  <Name>
1uts_lig

>  <RI>
0

>  <Rbt.Current_Directory>
/home/itssahil/PROJECTS/Mol_Feturizer/New_Systems/rnas/1uts

>  <Rbt.Executable>
rbdock ($Id: //depot/dev/client3/rdock/2013.1/src/exe/rbdock.cxx#4 $)

>  <Rbt.Library>
libRbt.so (2013.1, Build901 2013/11/27)

>  <Rbt.Parameter_File>
/export/apps/rDock/src/rDock_2013.1_src/data/scripts/dock_solv.prm

>  <Rbt.Receptor>
prm/blind_docking_20.prm

>  <SCORE>
-6.18207

>  <SCORE.INTER>
-18.2488

>  <SCORE.INTER.CONST>
1

>  <SCORE.INTER.POLAR>
-2.26884

>  <SCORE.INTER.ROT>
10

>  <SCORE.INTER.SOLV>
6.12299

>  <SCORE.INTER.VDW>
-16.9108

>  <SCORE.INTER.norm>
-0.608294

>  <SCORE.INTRA>
9.15894

>  <SCORE.INTRA.DIHEDRAL>
9.09007

>  <SCORE.INTRA.DIHEDRAL.0>
18.0451

>  <SCORE.INTRA.POLAR>
0.196815

>  <SCORE.INTRA.POLAR.0>
-0.196815

>  <SCORE.INTRA.REPUL>
0

>  <SCORE.INTRA.REPUL.0>
0

>  <SCORE.INTRA.SOLV>
0.374747

>  <SCORE.INTRA.SOLV.lig_0>
-14.7906

>  <SCORE.INTRA.VDW>
3.75736

>  <SCORE.INTRA.VDW.0>
-0.411701

>  <SCORE.INTRA.norm>
0.305298

>  <SCORE.RESTR>
2.90783

>  <SCORE.RESTR.CAVITY>
2.90783

>  <SCORE.RESTR.norm>
0.0969276

>  <SCORE.SYSTEM>
0

>  <SCORE.SYSTEM.CONST>
0

>  <SCORE.SYSTEM.DIHEDRAL>
0

>  <SCORE.SYSTEM.SOLV>
0

>  <SCORE.SYSTEM.norm>
0

>  <SCORE.heavy>
30

>  <SCORE.norm>
-0.206069

>  <RMSD>
18.662

$$$$
1uts_lig
 OpenBabel11021811413D
libRbt.so/2013.1/901 2013/11/27
 30 33  0  0  0  0  0  0  0  0999 V2000
  -10.7859   -7.8207   12.0061 N   0  0  0  0  0  0  0  0  0  0  0  0
   -9.6836   -9.1095   10.2282 C   0  0  0  0  0  0  0  0  0  0  0  0
   -9.6682   -5.8385    7.1604 C   0  0  0  0  0  0  0  0  0  0  0  0
   -8.3431   -8.3721   10.2955 C   0  0  0  0  0  0  0  0  0  0  0  0
   -8.3641   -7.2619    9.3862 O   0  0  0  0  0  0  0  0  0  0  0  0
  -10.3059   -9.1680   11.6244 C   0  0  0  0  0  0  0  0  0  0  0  0
   -9.4852   -5.2903    8.5235 N   0  0  0  0  0  0  0  0  0  0  0  0
  -10.6367   -5.6811    9.3792 C   0  0  0  0  0  0  0  0  0  0  0  0
  -10.8502   -4.6294   10.4719 C   0  0  0  0  0  0  0  0  0  0  0  0
  -11.7091   -3.5432    9.9490 N   0  0  0  0  0  0  0  0  0  0  0  0
  -12.7428   -4.1247    9.0451 C   0  0  0  0  0  0  0  0  0  0  0  0
  -10.8673   -2.5593    9.2113 C   0  0  0  0  0  0  0  0  0  0  0  0
  -13.6345   -2.9989    8.4969 C   0  0  0  0  0  0  0  0  0  0  0  0
  -11.7597   -1.4333    8.6588 C   0  0  0  0  0  0  0  0  0  0  0  0
  -12.7933   -2.0152    7.7580 N   0  0  0  0  0  0  0  0  0  0  0  0
   -7.0393   -9.2811    6.4880 C   0  0  0  0  0  0  0  0  0  0  0  0
   -6.6663  -10.3025    0.1141 N   0  0  0  0  0  0  0  0  0  0  0  0
   -7.6611   -8.6359    5.3924 C   0  0  0  0  0  0  0  0  0  0  0  0
   -8.5121   -7.5212    5.6173 C   0  0  0  0  0  0  0  0  0  0  0  0
   -8.7391   -7.0493    6.9393 C   0  0  0  0  0  0  0  0  0  0  0  0
   -8.1241   -7.7115    8.0440 C   0  0  0  0  0  0  0  0  0  0  0  0
   -7.2707   -8.8249    7.8125 C   0  0  0  0  0  0  0  0  0  0  0  0
   -6.4535   -9.0187   -0.4375 C   0  0  0  0  0  0  0  0  0  0  0  0
   -6.6114   -8.0144    0.5444 C   0  0  0  0  0  0  0  0  0  0  0  0
   -7.1633   -8.1907    3.0400 C   0  0  0  0  0  0  0  0  0  0  0  0
   -7.4336   -9.1077    4.0919 C   0  0  0  0  0  0  0  0  0  0  0  0
   -7.4661  -10.5040    3.8242 C   0  0  0  0  0  0  0  0  0  0  0  0
   -7.2263  -10.9815    2.5074 C   0  0  0  0  0  0  0  0  0  0  0  0
   -6.9408  -10.0573    1.4542 C   0  0  0  0  0  0  0  0  0  0  0  0
   -6.9089   -8.6756    1.7170 C   0  0  0  0  0  0  0  0  0  0  0  0
  1  6  1  0  0  0  0
  2  4  1  0  0  0  0
  3  7  1  0  0  0  0
  4  5  1  0  0  0  0
  6  2  1  0  0  0  0
  7  8  1  0  0  0  0
  8  9  1  0  0  0  0
  9 10  1  0  0  0  0
 10 11  1  0  0  0  0
 10 12  1  0  0  0  0
 11 13  1  0  0  0  0
 13 15  1  0  0  0  0
 14 12  1  0  0  0  0
 15 14  1  0  0  0  0
 16 18  2  0  0  0  0
 16 22  1  0  0  0  0
 17 23  1  0  0  0  0
 17 29  1  0  0  0  0
 18 19  1  0  0  0  0
 18 26  1  0  0  0  0
 19 20  2  0  0  0  0
 20  3  1  0  0  0  0
 20 21  1  0  0  0  0
 21  5  1  0  0  0  0
 21 22  2  0  0  0  0
 23 24  2  0  0  0  0
 24 30  1  0  0  0  0
 25 26  2  0  0  0  0
 25 30  1  0  0  0  0
 26 27  1  0  0  0  0
 27 28  2  0  0  0  0
 28 29  1  0  0  0  0
 29 30  2  0  0  0  0
M  END
>  <CHROM.1>
175.41076900,-123.52225330,-104.79895524,-79.52156050,71.85135556,-151.66904005
86.17068729,36.72058804,-135.43248263,-164.77618544,147.18956081,-9.16949661
-7.01239243,6.82143671,-2.58533939,1.03056166,-1.20018161

>  <Name>
1uts_lig

>  <RI>
0

>  <Rbt.Current_Directory>
/home/itssahil/PROJECTS/Mol_Feturizer/New_Systems/rnas/1uts

>  <Rbt.Executable>
rbdock ($Id: //depot/dev/client3/rdock/2013.1/src/exe/rbdock.cxx#4 $)

>  <Rbt.Library>
libRbt.so (2013.1, Build901 2013/11/27)

>  <Rbt.Parameter_File>
/export/apps/rDock/src/rDock_2013.1_src/data/scripts/dock_solv.prm

>  <Rbt.Receptor>
prm/blind_docking_20.prm

>  <SCORE>
-5.89707

>  <SCORE.INTER>
-19.701

>  <SCORE.INTER.CONST>
1

>  <SCORE.INTER.POLAR>
-1.36189

>  <SCORE.INTER.ROT>
10

>  <SCORE.INTER.SOLV>
7.29465

>  <SCORE.INTER.VDW>
-21.2926

>  <SCORE.INTER.norm>
-0.656701

>  <SCORE.INTRA>
10.6379

>  <SCORE.INTRA.DIHEDRAL>
2.36925

>  <SCORE.INTRA.DIHEDRAL.0>
18.0451

>  <SCORE.INTRA.POLAR>
-0.313059

>  <SCORE.INTRA.POLAR.0>
-0.196815

>  <SCORE.INTRA.REPUL>
0

>  <SCORE.INTRA.REPUL.0>
0

>  <SCORE.INTRA.SOLV>
0.630684

>  <SCORE.INTRA.SOLV.lig_0>
-14.7906

>  <SCORE.INTRA.VDW>
10.2024

>  <SCORE.INTRA.VDW.0>
-0.411701

>  <SCORE.INTRA.norm>
0.354598

>  <SCORE.RESTR>
3.16601

>  <SCORE.RESTR.CAVITY>
3.16601

>  <SCORE.RESTR.norm>
0.105534

>  <SCORE.SYSTEM>
0

>  <SCORE.SYSTEM.CONST>
0

>  <SCORE.SYSTEM.DIHEDRAL>
0

>  <SCORE.SYSTEM.SOLV>
0

>  <SCORE.SYSTEM.norm>
0

>  <SCORE.heavy>
30

>  <SCORE.norm>
-0.196569

>  <RMSD>
18.666

$$$$
1uts_lig
 OpenBabel11021811413D
libRbt.so/2013.1/901 2013/11/27
 30 33  0  0  0  0  0  0  0  0999 V2000
   -9.2786   -9.1114    1.5531 N   0  0  0  0  0  0  0  0  0  0  0  0
   -7.0090   -8.2679    1.9710 C   0  0  0  0  0  0  0  0  0  0  0  0
   -8.1604   -6.0161    4.5784 C   0  0  0  0  0  0  0  0  0  0  0  0
   -6.9892   -9.0158    3.3072 C   0  0  0  0  0  0  0  0  0  0  0  0
   -6.2586   -8.2457    4.2731 O   0  0  0  0  0  0  0  0  0  0  0  0
   -7.9157   -9.0065    0.9848 C   0  0  0  0  0  0  0  0  0  0  0  0
   -9.5445   -6.0998    4.0594 N   0  0  0  0  0  0  0  0  0  0  0  0
  -10.3837   -5.0525    4.6996 C   0  0  0  0  0  0  0  0  0  0  0  0
  -11.0719   -5.6276    5.9411 C   0  0  0  0  0  0  0  0  0  0  0  0
  -11.4521   -4.5228    6.8498 N   0  0  0  0  0  0  0  0  0  0  0  0
  -10.3733   -4.3227    7.8598 C   0  0  0  0  0  0  0  0  0  0  0  0
  -12.7391   -4.8570    7.5226 C   0  0  0  0  0  0  0  0  0  0  0  0
  -10.7665   -3.1783    8.8080 C   0  0  0  0  0  0  0  0  0  0  0  0
  -13.1319   -3.7134    8.4752 C   0  0  0  0  0  0  0  0  0  0  0  0
  -12.0530   -3.5126    9.4822 N   0  0  0  0  0  0  0  0  0  0  0  0
   -7.5464   -8.9894    7.7401 C   0  0  0  0  0  0  0  0  0  0  0  0
  -11.2007   -7.7521   12.8393 N   0  0  0  0  0  0  0  0  0  0  0  0
   -8.4565   -7.9229    7.9334 C   0  0  0  0  0  0  0  0  0  0  0  0
   -8.6504   -6.9626    6.9049 C   0  0  0  0  0  0  0  0  0  0  0  0
   -7.9355   -7.0709    5.6806 C   0  0  0  0  0  0  0  0  0  0  0  0
   -7.0061   -8.1379    5.4941 C   0  0  0  0  0  0  0  0  0  0  0  0
   -6.8184   -9.0980    6.5259 C   0  0  0  0  0  0  0  0  0  0  0  0
  -11.1552   -9.1379   13.1134 C   0  0  0  0  0  0  0  0  0  0  0  0
  -10.5056   -9.8380   12.0716 C   0  0  0  0  0  0  0  0  0  0  0  0
   -9.4352   -8.9903    9.9037 C   0  0  0  0  0  0  0  0  0  0  0  0
   -9.1567   -7.8218    9.1438 C   0  0  0  0  0  0  0  0  0  0  0  0
   -9.5831   -6.5503    9.6167 C   0  0  0  0  0  0  0  0  0  0  0  0
  -10.2847   -6.4482   10.8484 C   0  0  0  0  0  0  0  0  0  0  0  0
  -10.5512   -7.6241   11.6174 C   0  0  0  0  0  0  0  0  0  0  0  0
  -10.1306   -8.8829   11.1508 C   0  0  0  0  0  0  0  0  0  0  0  0
  1  6  1  0  0  0  0
  2  4  1  0  0  0  0
  3  7  1  0  0  0  0
  4  5  1  0  0  0  0
  6  2  1  0  0  0  0
  7  8  1  0  0  0  0
  8  9  1  0  0  0  0
  9 10  1  0  0  0  0
 10 11  1  0  0  0  0
 10 12  1  0  0  0  0
 11 13  1  0  0  0  0
 13 15  1  0  0  0  0
 14 12  1  0  0  0  0
 15 14  1  0  0  0  0
 16 18  2  0  0  0  0
 16 22  1  0  0  0  0
 17 23  1  0  0  0  0
 17 29  1  0  0  0  0
 18 19  1  0  0  0  0
 18 26  1  0  0  0  0
 19 20  2  0  0  0  0
 20  3  1  0  0  0  0
 20 21  1  0  0  0  0
 21  5  1  0  0  0  0
 21 22  2  0  0  0  0
 23 24  2  0  0  0  0
 24 30  1  0  0  0  0
 25 26  2  0  0  0  0
 25 30  1  0  0  0  0
 26 27  1  0  0  0  0
 27 28  2  0  0  0  0
 28 29  1  0  0  0  0
 29 30  2  0  0  0  0
M  END
>  <CHROM.1>
66.79258520,-173.71413529,99.06621176,131.25794724,58.16970988,-92.80326389
157.94071803,-94.10499435,-27.64346498,-65.83505745,-88.70015200,-9.55099664
-7.00373407,7.23870384,-0.90158855,-0.92814342,1.97148409

>  <Name>
1uts_lig

>  <RI>
0

>  <Rbt.Current_Directory>
/home/itssahil/PROJECTS/Mol_Feturizer/New_Systems/rnas/1uts

>  <Rbt.Executable>
rbdock ($Id: //depot/dev/client3/rdock/2013.1/src/exe/rbdock.cxx#4 $)

>  <Rbt.Library>
libRbt.so (2013.1, Build901 2013/11/27)

>  <Rbt.Parameter_File>
/export/apps/rDock/src/rDock_2013.1_src/data/scripts/dock_solv.prm

>  <Rbt.Receptor>
prm/blind_docking_20.prm

>  <SCORE>
-13.9426

>  <SCORE.INTER>
-18.6694

>  <SCORE.INTER.CONST>
1

>  <SCORE.INTER.POLAR>
-0.98094

>  <SCORE.INTER.ROT>
10

>  <SCORE.INTER.SOLV>
7.74427

>  <SCORE.INTER.VDW>
-22.0246

>  <SCORE.INTER.norm>
-0.622313

>  <SCORE.INTRA>
3.26683

>  <SCORE.INTRA.DIHEDRAL>
3.91164

>  <SCORE.INTRA.DIHEDRAL.0>
18.0451

>  <SCORE.INTRA.POLAR>
0.196815

>  <SCORE.INTRA.POLAR.0>
-0.196815

>  <SCORE.INTRA.REPUL>
0

>  <SCORE.INTRA.REPUL.0>
0

>  <SCORE.INTRA.SOLV>
0.128985

>  <SCORE.INTRA.SOLV.lig_0>
-14.7906

>  <SCORE.INTRA.VDW>
0.577352

>  <SCORE.INTRA.VDW.0>
-0.411701

>  <SCORE.INTRA.norm>
0.108894

>  <SCORE.RESTR>
1.45996

>  <SCORE.RESTR.CAVITY>
1.45996

>  <SCORE.RESTR.norm>
0.0486654

>  <SCORE.SYSTEM>
0

>  <SCORE.SYSTEM.CONST>
0

>  <SCORE.SYSTEM.DIHEDRAL>
0

>  <SCORE.SYSTEM.SOLV>
0

>  <SCORE.SYSTEM.norm>
0

>  <SCORE.heavy>
30

>  <SCORE.norm>
-0.464753

>  <RMSD>
18.677

$$$$
1uts_lig
 OpenBabel11021811413D
libRbt.so/2013.1/901 2013/11/27
 30 33  0  0  0  0  0  0  0  0999 V2000
  -10.5463   -9.3125   14.0199 N   0  0  0  0  0  0  0  0  0  0  0  0
  -11.1183   -6.9700   13.5479 C   0  0  0  0  0  0  0  0  0  0  0  0
  -11.3349   -4.3471    9.1222 C   0  0  0  0  0  0  0  0  0  0  0  0
  -10.9689   -5.8900   12.4725 C   0  0  0  0  0  0  0  0  0  0  0  0
  -11.8038   -6.2157   11.3514 O   0  0  0  0  0  0  0  0  0  0  0  0
  -10.8295   -8.3428   12.9378 C   0  0  0  0  0  0  0  0  0  0  0  0
  -11.9362   -4.0539    7.8014 N   0  0  0  0  0  0  0  0  0  0  0  0
  -12.6556   -5.2552    7.3008 C   0  0  0  0  0  0  0  0  0  0  0  0
  -13.1119   -5.0216    5.8577 C   0  0  0  0  0  0  0  0  0  0  0  0
  -11.9268   -4.8434    4.9890 N   0  0  0  0  0  0  0  0  0  0  0  0
  -12.3757   -4.5316    3.6015 C   0  0  0  0  0  0  0  0  0  0  0  0
  -11.1113   -6.0907    5.0038 C   0  0  0  0  0  0  0  0  0  0  0  0
  -11.1473   -4.3496    2.6954 C   0  0  0  0  0  0  0  0  0  0  0  0
   -9.8828   -5.9110    4.0938 C   0  0  0  0  0  0  0  0  0  0  0  0
  -10.3319   -5.5972    2.7088 N   0  0  0  0  0  0  0  0  0  0  0  0
   -9.6716   -8.4027    9.1373 C   0  0  0  0  0  0  0  0  0  0  0  0
   -6.4698   -9.5922    3.7240 N   0  0  0  0  0  0  0  0  0  0  0  0
   -9.4377   -7.5418    8.0384 C   0  0  0  0  0  0  0  0  0  0  0  0
   -9.9800   -6.2290    8.0397 C   0  0  0  0  0  0  0  0  0  0  0  0
  -10.7545   -5.7756    9.1427 C   0  0  0  0  0  0  0  0  0  0  0  0
  -11.0027   -6.6510   10.2424 C   0  0  0  0  0  0  0  0  0  0  0  0
  -10.4547   -7.9630   10.2370 C   0  0  0  0  0  0  0  0  0  0  0  0
   -6.6942  -10.9616    3.9924 C   0  0  0  0  0  0  0  0  0  0  0  0
   -7.4827  -11.1262    5.1538 C   0  0  0  0  0  0  0  0  0  0  0  0
   -8.5254   -9.3911    6.7242 C   0  0  0  0  0  0  0  0  0  0  0  0
   -8.6744   -7.9963    6.9538 C   0  0  0  0  0  0  0  0  0  0  0  0
   -8.0540   -7.0635    6.0780 C   0  0  0  0  0  0  0  0  0  0  0  0
   -7.2882   -7.5254    4.9736 C   0  0  0  0  0  0  0  0  0  0  0  0
   -7.1517   -8.9292    4.7372 C   0  0  0  0  0  0  0  0  0  0  0  0
   -7.7642   -9.8536    5.6030 C   0  0  0  0  0  0  0  0  0  0  0  0
  1  6  1  0  0  0  0
  2  4  1  0  0  0  0
  3  7  1  0  0  0  0
  4  5  1  0  0  0  0
  6  2  1  0  0  0  0
  7  8  1  0  0  0  0
  8  9  1  0  0  0  0
  9 10  1  0  0  0  0
 10 11  1  0  0  0  0
 10 12  1  0  0  0  0
 11 13  1  0  0  0  0
 13 15  1  0  0  0  0
 14 12  1  0  0  0  0
 15 14  1  0  0  0  0
 16 18  2  0  0  0  0
 16 22  1  0  0  0  0
 17 23  1  0  0  0  0
 17 29  1  0  0  0  0
 18 19  1  0  0  0  0
 18 26  1  0  0  0  0
 19 20  2  0  0  0  0
 20  3  1  0  0  0  0
 20 21  1  0  0  0  0
 21  5  1  0  0  0  0
 21 22  2  0  0  0  0
 23 24  2  0  0  0  0
 24 30  1  0  0  0  0
 25 26  2  0  0  0  0
 25 30  1  0  0  0  0
 26 27  1  0  0  0  0
 27 28  2  0  0  0  0
 28 29  1  0  0  0  0
 29 30  2  0  0  0  0
M  END
>  <CHROM.1>
58.74389164,54.49749792,39.69762551,-107.61936910,162.02473969,-172.22429215
63.24418537,-176.48790530,21.48046723,44.95875729,-103.26259085,-10.08699315
-6.99574682,7.38078292,-1.94894783,0.84817484,-1.31516049

>  <Name>
1uts_lig

>  <RI>
0

>  <Rbt.Current_Directory>
/home/itssahil/PROJECTS/Mol_Feturizer/New_Systems/rnas/1uts

>  <Rbt.Executable>
rbdock ($Id: //depot/dev/client3/rdock/2013.1/src/exe/rbdock.cxx#4 $)

>  <Rbt.Library>
libRbt.so (2013.1, Build901 2013/11/27)

>  <Rbt.Parameter_File>
/export/apps/rDock/src/rDock_2013.1_src/data/scripts/dock_solv.prm

>  <Rbt.Receptor>
prm/blind_docking_100.prm

>  <SCORE>
-18.0313

>  <SCORE.INTER>
-25.6824

>  <SCORE.INTER.CONST>
1

>  <SCORE.INTER.POLAR>
-3.00311

>  <SCORE.INTER.ROT>
10

>  <SCORE.INTER.SOLV>
7.18973

>  <SCORE.INTER.VDW>
-19.7745

>  <SCORE.INTER.norm>
-0.856079

>  <SCORE.INTRA>
5.96344

>  <SCORE.INTRA.DIHEDRAL>
-3.27715

>  <SCORE.INTRA.DIHEDRAL.0>
18.0451

>  <SCORE.INTRA.POLAR>
0.196815

>  <SCORE.INTRA.POLAR.0>
-0.196815

>  <SCORE.INTRA.REPUL>
0.000424738

>  <SCORE.INTRA.REPUL.0>
0

>  <SCORE.INTRA.SOLV>
0.000564703

>  <SCORE.INTRA.SOLV.lig_0>
-14.7906

>  <SCORE.INTRA.VDW>
6.93043

>  <SCORE.INTRA.VDW.0>
-0.411701

>  <SCORE.INTRA.norm>
0.198781

>  <SCORE.RESTR>
1.68768

>  <SCORE.RESTR.CAVITY>
1.68768

>  <SCORE.RESTR.norm>
0.0562559

>  <SCORE.SYSTEM>
0

>  <SCORE.SYSTEM.CONST>
0

>  <SCORE.SYSTEM.DIHEDRAL>
0

>  <SCORE.SYSTEM.SOLV>
0

>  <SCORE.SYSTEM.norm>
0

>  <SCORE.heavy>
30

>  <SCORE.norm>
-0.601042

>  <RMSD>
18.704

$$$$
1uts_lig
 OpenBabel11021811413D
libRbt.so/2013.1/901 2013/11/27
 30 33  0  0  0  0  0  0  0  0999 V2000
   -8.9333   -7.1804   12.4568 N   0  0  0  0  0  0  0  0  0  0  0  0
  -11.3104   -6.8332   11.9407 C   0  0  0  0  0  0  0  0  0  0  0  0
   -9.7281   -4.8154    7.6656 C   0  0  0  0  0  0  0  0  0  0  0  0
  -11.0675   -6.3033   10.5246 C   0  0  0  0  0  0  0  0  0  0  0  0
   -9.6731   -6.0061   10.3601 O   0  0  0  0  0  0  0  0  0  0  0  0
  -10.2361   -7.8639   12.2925 C   0  0  0  0  0  0  0  0  0  0  0  0
   -9.3766   -4.3695    6.2982 N   0  0  0  0  0  0  0  0  0  0  0  0
  -10.0791   -5.2174    5.2988 C   0  0  0  0  0  0  0  0  0  0  0  0
  -11.5628   -4.8408    5.2518 C   0  0  0  0  0  0  0  0  0  0  0  0
  -12.3701   -5.9486    5.8103 N   0  0  0  0  0  0  0  0  0  0  0  0
  -12.4049   -5.8318    7.2966 C   0  0  0  0  0  0  0  0  0  0  0  0
  -11.7696   -7.2509    5.4049 C   0  0  0  0  0  0  0  0  0  0  0  0
  -13.2395   -6.9832    7.8806 C   0  0  0  0  0  0  0  0  0  0  0  0
  -12.6023   -8.4046    5.9923 C   0  0  0  0  0  0  0  0  0  0  0  0
  -12.6386   -8.2859    7.4765 N   0  0  0  0  0  0  0  0  0  0  0  0
   -8.0505   -8.7965    8.4076 C   0  0  0  0  0  0  0  0  0  0  0  0
   -5.8758  -11.4367    3.0021 N   0  0  0  0  0  0  0  0  0  0  0  0
   -8.0742   -8.2677    7.0950 C   0  0  0  0  0  0  0  0  0  0  0  0
   -8.6197   -6.9772    6.8614 C   0  0  0  0  0  0  0  0  0  0  0  0
   -9.1392   -6.2134    7.9424 C   0  0  0  0  0  0  0  0  0  0  0  0
   -9.1291   -6.7553    9.2628 C   0  0  0  0  0  0  0  0  0  0  0  0
   -8.5790   -8.0464    9.4911 C   0  0  0  0  0  0  0  0  0  0  0  0
   -4.8246  -11.9988    3.7616 C   0  0  0  0  0  0  0  0  0  0  0  0
   -4.8320  -11.4975    5.0830 C   0  0  0  0  0  0  0  0  0  0  0  0
   -6.4107   -9.8380    6.2309 C   0  0  0  0  0  0  0  0  0  0  0  0
   -7.5615   -9.0273    6.0339 C   0  0  0  0  0  0  0  0  0  0  0  0
   -8.1954   -8.9935    4.7614 C   0  0  0  0  0  0  0  0  0  0  0  0
   -7.6802   -9.7710    3.6892 C   0  0  0  0  0  0  0  0  0  0  0  0
   -6.5305  -10.5964    3.8944 C   0  0  0  0  0  0  0  0  0  0  0  0
   -5.9017  -10.6306    5.1525 C   0  0  0  0  0  0  0  0  0  0  0  0
  1  6  1  0  0  0  0
  2  4  1  0  0  0  0
  3  7  1  0  0  0  0
  4  5  1  0  0  0  0
  6  2  1  0  0  0  0
  7  8  1  0  0  0  0
  8  9  1  0  0  0  0
  9 10  1  0  0  0  0
 10 11  1  0  0  0  0
 10 12  1  0  0  0  0
 11 13  1  0  0  0  0
 13 15  1  0  0  0  0
 14 12  1  0  0  0  0
 15 14  1  0  0  0  0
 16 18  2  0  0  0  0
 16 22  1  0  0  0  0
 17 23  1  0  0  0  0
 17 29  1  0  0  0  0
 18 19  1  0  0  0  0
 18 26  1  0  0  0  0
 19 20  2  0  0  0  0
 20  3  1  0  0  0  0
 20 21  1  0  0  0  0
 21  5  1  0  0  0  0
 21 22  2  0  0  0  0
 23 24  2  0  0  0  0
 24 30  1  0  0  0  0
 25 26  2  0  0  0  0
 25 30  1  0  0  0  0
 26 27  1  0  0  0  0
 27 28  2  0  0  0  0
 28 29  1  0  0  0  0
 29 30  2  0  0  0  0
M  END
>  <CHROM.1>
-43.71521214,-45.12080225,67.82275606,122.16840475,69.73520622,74.18632788
-111.01918888,83.63997266,-36.94385219,-12.52570405,90.12960837,-9.31249613
-7.75316836,7.16168905,-2.41703905,0.65333693,-1.68050151

>  <Name>
1uts_lig

>  <RI>
0

>  <Rbt.Current_Directory>
/home/itssahil/PROJECTS/Mol_Feturizer/New_Systems/rnas/1uts

>  <Rbt.Executable>
rbdock ($Id: //depot/dev/client3/rdock/2013.1/src/exe/rbdock.cxx#4 $)

>  <Rbt.Library>
libRbt.so (2013.1, Build901 2013/11/27)

>  <Rbt.Parameter_File>
/export/apps/rDock/src/rDock_2013.1_src/data/scripts/dock_solv.prm

>  <Rbt.Receptor>
prm/blind_docking_100.prm

>  <SCORE>
-5.52884

>  <SCORE.INTER>
-18.204

>  <SCORE.INTER.CONST>
1

>  <SCORE.INTER.POLAR>
-0.751604

>  <SCORE.INTER.ROT>
10

>  <SCORE.INTER.SOLV>
7.36417

>  <SCORE.INTER.VDW>
-22.3521

>  <SCORE.INTER.norm>
-0.606801

>  <SCORE.INTRA>
10.564

>  <SCORE.INTRA.DIHEDRAL>
5.1723

>  <SCORE.INTRA.DIHEDRAL.0>
18.0451

>  <SCORE.INTRA.POLAR>
-0.52804

>  <SCORE.INTRA.POLAR.0>
-0.196815

>  <SCORE.INTRA.REPUL>
0

>  <SCORE.INTRA.REPUL.0>
0

>  <SCORE.INTRA.SOLV>
0.718541

>  <SCORE.INTRA.SOLV.lig_0>
-14.7906

>  <SCORE.INTRA.VDW>
9.41388

>  <SCORE.INTRA.VDW.0>
-0.411701

>  <SCORE.INTRA.norm>
0.352132

>  <SCORE.RESTR>
2.11123

>  <SCORE.RESTR.CAVITY>
2.11123

>  <SCORE.RESTR.norm>
0.0703742

>  <SCORE.SYSTEM>
0

>  <SCORE.SYSTEM.CONST>
0

>  <SCORE.SYSTEM.DIHEDRAL>
0

>  <SCORE.SYSTEM.SOLV>
0

>  <SCORE.SYSTEM.norm>
0

>  <SCORE.heavy>
30

>  <SCORE.norm>
-0.184295

>  <RMSD>
18.718

$$$$
1uts_lig
 OpenBabel11021811413D
libRbt.so/2013.1/901 2013/11/27
 30 33  0  0  0  0  0  0  0  0999 V2000
  -10.2485   -8.4648   14.4509 N   0  0  0  0  0  0  0  0  0  0  0  0
  -10.6712   -9.5293   12.2771 C   0  0  0  0  0  0  0  0  0  0  0  0
   -7.7057   -7.9255    9.6389 C   0  0  0  0  0  0  0  0  0  0  0  0
   -9.9599   -9.5789   10.9218 C   0  0  0  0  0  0  0  0  0  0  0  0
  -10.5437   -8.6071   10.0418 O   0  0  0  0  0  0  0  0  0  0  0  0
  -10.3192   -8.2235   12.9921 C   0  0  0  0  0  0  0  0  0  0  0  0
   -8.4103   -6.9229   10.4697 N   0  0  0  0  0  0  0  0  0  0  0  0
   -9.1449   -5.9728    9.5929 C   0  0  0  0  0  0  0  0  0  0  0  0
  -10.6128   -5.8999   10.0235 C   0  0  0  0  0  0  0  0  0  0  0  0
  -11.3559   -5.0206    9.0931 N   0  0  0  0  0  0  0  0  0  0  0  0
  -11.1937   -3.6014    9.5214 C   0  0  0  0  0  0  0  0  0  0  0  0
  -12.7962   -5.4033    9.0958 C   0  0  0  0  0  0  0  0  0  0  0  0
  -11.9675   -2.6854    8.5595 C   0  0  0  0  0  0  0  0  0  0  0  0
  -13.5728   -4.4842    8.1357 C   0  0  0  0  0  0  0  0  0  0  0  0
  -13.4083   -3.0668    8.5627 N   0  0  0  0  0  0  0  0  0  0  0  0
  -10.2570   -9.2765    6.3403 C   0  0  0  0  0  0  0  0  0  0  0  0
   -6.7996   -9.5848    0.9253 N   0  0  0  0  0  0  0  0  0  0  0  0
   -8.9028   -8.9415    6.1013 C   0  0  0  0  0  0  0  0  0  0  0  0
   -8.0817   -8.5040    7.1746 C   0  0  0  0  0  0  0  0  0  0  0  0
   -8.6148   -8.4043    8.4890 C   0  0  0  0  0  0  0  0  0  0  0  0
   -9.9850   -8.7270    8.7248 C   0  0  0  0  0  0  0  0  0  0  0  0
  -10.8013   -9.1674    7.6471 C   0  0  0  0  0  0  0  0  0  0  0  0
   -6.3435  -10.9129    1.0857 C   0  0  0  0  0  0  0  0  0  0  0  0
   -6.6035  -11.3820    2.3934 C   0  0  0  0  0  0  0  0  0  0  0  0
   -7.7469  -10.2393    4.3810 C   0  0  0  0  0  0  0  0  0  0  0  0
   -8.3845   -9.0408    4.8024 C   0  0  0  0  0  0  0  0  0  0  0  0
   -8.5019   -7.9461    3.9023 C   0  0  0  0  0  0  0  0  0  0  0  0
   -7.9844   -8.0514    2.5830 C   0  0  0  0  0  0  0  0  0  0  0  0
   -7.3558   -9.2634    2.1576 C   0  0  0  0  0  0  0  0  0  0  0  0
   -7.2383  -10.3473    3.0469 C   0  0  0  0  0  0  0  0  0  0  0  0
  1  6  1  0  0  0  0
  2  4  1  0  0  0  0
  3  7  1  0  0  0  0
  4  5  1  0  0  0  0
  6  2  1  0  0  0  0
  7  8  1  0  0  0  0
  8  9  1  0  0  0  0
  9 10  1  0  0  0  0
 10 11  1  0  0  0  0
 10 12  1  0  0  0  0
 11 13  1  0  0  0  0
 13 15  1  0  0  0  0
 14 12  1  0  0  0  0
 15 14  1  0  0  0  0
 16 18  2  0  0  0  0
 16 22  1  0  0  0  0
 17 23  1  0  0  0  0
 17 29  1  0  0  0  0
 18 19  1  0  0  0  0
 18 26  1  0  0  0  0
 19 20  2  0  0  0  0
 20  3  1  0  0  0  0
 20 21  1  0  0  0  0
 21  5  1  0  0  0  0
 21 22  2  0  0  0  0
 23 24  2  0  0  0  0
 24 30  1  0  0  0  0
 25 26  2  0  0  0  0
 25 30  1  0  0  0  0
 26 27  1  0  0  0  0
 27 28  2  0  0  0  0
 28 29  1  0  0  0  0
 29 30  2  0  0  0  0
M  END
>  <CHROM.1>
-86.33327155,-69.68019058,-42.58600289,-174.20068299,-145.60997039,126.91821078
-176.37217579,-84.32187303,-92.50580946,134.62309926,-67.29324904,-9.59614762
-7.74576178,7.62586731,-2.36188711,0.98452774,-1.28518368

>  <Name>
1uts_lig

>  <RI>
0

>  <Rbt.Current_Directory>
/home/itssahil/PROJECTS/Mol_Feturizer/New_Systems/rnas/1uts

>  <Rbt.Executable>
rbdock ($Id: //depot/dev/client3/rdock/2013.1/src/exe/rbdock.cxx#4 $)

>  <Rbt.Library>
libRbt.so (2013.1, Build901 2013/11/27)

>  <Rbt.Parameter_File>
/export/apps/rDock/src/rDock_2013.1_src/data/scripts/dock_solv.prm

>  <Rbt.Receptor>
prm/blind_docking_20.prm

>  <SCORE>
15.3663

>  <SCORE.INTER>
7.35109

>  <SCORE.INTER.CONST>
1

>  <SCORE.INTER.POLAR>
-0.630693

>  <SCORE.INTER.ROT>
10

>  <SCORE.INTER.SOLV>
6.46411

>  <SCORE.INTER.VDW>
-5.41833

>  <SCORE.INTER.norm>
0.245036

>  <SCORE.INTRA>
5.50589

>  <SCORE.INTRA.DIHEDRAL>
2.43036

>  <SCORE.INTRA.DIHEDRAL.0>
18.0451

>  <SCORE.INTRA.POLAR>
0.119403

>  <SCORE.INTRA.POLAR.0>
-0.196815

>  <SCORE.INTRA.REPUL>
0

>  <SCORE.INTRA.REPUL.0>
0

>  <SCORE.INTRA.SOLV>
0.146094

>  <SCORE.INTRA.SOLV.lig_0>
-14.7906

>  <SCORE.INTRA.VDW>
3.81169

>  <SCORE.INTRA.VDW.0>
-0.411701

>  <SCORE.INTRA.norm>
0.18353

>  <SCORE.RESTR>
2.50933

>  <SCORE.RESTR.CAVITY>
2.50933

>  <SCORE.RESTR.norm>
0.0836443

>  <SCORE.SYSTEM>
0

>  <SCORE.SYSTEM.CONST>
0

>  <SCORE.SYSTEM.DIHEDRAL>
0

>  <SCORE.SYSTEM.SOLV>
0

>  <SCORE.SYSTEM.norm>
0

>  <SCORE.heavy>
30

>  <SCORE.norm>
0.51221

>  <RMSD>
18.729

$$$$
1uts_lig
 OpenBabel11021811413D
libRbt.so/2013.1/901 2013/11/27
 30 33  0  0  0  0  0  0  0  0999 V2000
  -11.3893   -6.7563   14.0892 N   0  0  0  0  0  0  0  0  0  0  0  0
   -9.8686   -7.9232   12.5521 C   0  0  0  0  0  0  0  0  0  0  0  0
  -11.3673   -7.6013    7.8904 C   0  0  0  0  0  0  0  0  0  0  0  0
   -9.8060   -8.5069   11.1376 C   0  0  0  0  0  0  0  0  0  0  0  0
   -9.5427   -7.4535   10.1991 O   0  0  0  0  0  0  0  0  0  0  0  0
  -11.3289   -7.6973   12.9480 C   0  0  0  0  0  0  0  0  0  0  0  0
  -11.4991   -6.2730    7.2499 N   0  0  0  0  0  0  0  0  0  0  0  0
  -12.7263   -5.5966    7.7474 C   0  0  0  0  0  0  0  0  0  0  0  0
  -12.6169   -5.3709    9.2582 C   0  0  0  0  0  0  0  0  0  0  0  0
  -12.1755   -3.9821    9.5181 N   0  0  0  0  0  0  0  0  0  0  0  0
  -13.1402   -3.0334    8.8911 C   0  0  0  0  0  0  0  0  0  0  0  0
  -10.8102   -3.7839    8.9544 C   0  0  0  0  0  0  0  0  0  0  0  0
  -12.6828   -1.5898    9.1556 C   0  0  0  0  0  0  0  0  0  0  0  0
  -10.3527   -2.3376    9.2154 C   0  0  0  0  0  0  0  0  0  0  0  0
  -11.3179   -1.3906    8.5910 N   0  0  0  0  0  0  0  0  0  0  0  0
   -7.2190   -8.9990    7.6607 C   0  0  0  0  0  0  0  0  0  0  0  0
   -5.9791  -11.5163    1.9030 N   0  0  0  0  0  0  0  0  0  0  0  0
   -8.0688   -9.1042    6.5337 C   0  0  0  0  0  0  0  0  0  0  0  0
   -9.4121   -8.6498    6.6151 C   0  0  0  0  0  0  0  0  0  0  0  0
   -9.9051   -8.0867    7.8241 C   0  0  0  0  0  0  0  0  0  0  0  0
   -9.0513   -7.9965    8.9643 C   0  0  0  0  0  0  0  0  0  0  0  0
   -7.7067   -8.4502    8.8760 C   0  0  0  0  0  0  0  0  0  0  0  0
   -5.0657  -12.3780    2.5517 C   0  0  0  0  0  0  0  0  0  0  0  0
   -5.1101  -12.1989    3.9530 C   0  0  0  0  0  0  0  0  0  0  0  0
   -6.5527  -10.6472    5.3935 C   0  0  0  0  0  0  0  0  0  0  0  0
   -7.5760   -9.6619    5.3455 C   0  0  0  0  0  0  0  0  0  0  0  0
   -8.1035   -9.2483    4.0914 C   0  0  0  0  0  0  0  0  0  0  0  0
   -7.6096   -9.8211    2.8882 C   0  0  0  0  0  0  0  0  0  0  0  0
   -6.5898  -10.8222    2.9406 C   0  0  0  0  0  0  0  0  0  0  0  0
   -6.0663  -11.2322    4.1804 C   0  0  0  0  0  0  0  0  0  0  0  0
  1  6  1  0  0  0  0
  2  4  1  0  0  0  0
  3  7  1  0  0  0  0
  4  5  1  0  0  0  0
  6  2  1  0  0  0  0
  7  8  1  0  0  0  0
  8  9  1  0  0  0  0
  9 10  1  0  0  0  0
 10 11  1  0  0  0  0
 10 12  1  0  0  0  0
 11 13  1  0  0  0  0
 13 15  1  0  0  0  0
 14 12  1  0  0  0  0
 15 14  1  0  0  0  0
 16 18  2  0  0  0  0
 16 22  1  0  0  0  0
 17 23  1  0  0  0  0
 17 29  1  0  0  0  0
 18 19  1  0  0  0  0
 18 26  1  0  0  0  0
 19 20  2  0  0  0  0
 20  3  1  0  0  0  0
 20 21  1  0  0  0  0
 21  5  1  0  0  0  0
 21 22  2  0  0  0  0
 23 24  2  0  0  0  0
 24 30  1  0  0  0  0
 25 26  2  0  0  0  0
 25 30  1  0  0  0  0
 26 27  1  0  0  0  0
 27 28  2  0  0  0  0
 28 29  1  0  0  0  0
 29 30  2  0  0  0  0
M  END
>  <CHROM.1>
146.69023158,98.08429475,-158.78948019,161.17992315,-161.88645912,62.09302378
98.21620129,57.59161338,29.68169361,-79.26328340,103.61454194,-9.47459493
-7.45237221,7.71595022,-2.79281109,1.00942567,-1.20034149

>  <Name>
1uts_lig

>  <RI>
0

>  <Rbt.Current_Directory>
/home/itssahil/PROJECTS/Mol_Feturizer/New_Systems/rnas/1uts

>  <Rbt.Executable>
rbdock ($Id: //depot/dev/client3/rdock/2013.1/src/exe/rbdock.cxx#4 $)

>  <Rbt.Library>
libRbt.so (2013.1, Build901 2013/11/27)

>  <Rbt.Parameter_File>
/export/apps/rDock/src/rDock_2013.1_src/data/scripts/dock_solv.prm

>  <Rbt.Receptor>
prm/blind_docking_20.prm

>  <SCORE>
-21.6716

>  <SCORE.INTER>
-31.9502

>  <SCORE.INTER.CONST>
1

>  <SCORE.INTER.POLAR>
-2.922

>  <SCORE.INTER.ROT>
10

>  <SCORE.INTER.SOLV>
8.21133

>  <SCORE.INTER.VDW>
-24.5639

>  <SCORE.INTER.norm>
-1.06501

>  <SCORE.INTRA>
6.52705

>  <SCORE.INTRA.DIHEDRAL>
2.06729

>  <SCORE.INTRA.DIHEDRAL.0>
18.0451

>  <SCORE.INTRA.POLAR>
0.196815

>  <SCORE.INTRA.POLAR.0>
-0.196815

>  <SCORE.INTRA.REPUL>
0

>  <SCORE.INTRA.REPUL.0>
0

>  <SCORE.INTRA.SOLV>
-0.27601

>  <SCORE.INTRA.SOLV.lig_0>
-14.7906

>  <SCORE.INTRA.VDW>
4.96224

>  <SCORE.INTRA.VDW.0>
-0.411701

>  <SCORE.INTRA.norm>
0.217568

>  <SCORE.RESTR>
3.75151

>  <SCORE.RESTR.CAVITY>
3.75151

>  <SCORE.RESTR.norm>
0.12505

>  <SCORE.SYSTEM>
0

>  <SCORE.SYSTEM.CONST>
0

>  <SCORE.SYSTEM.DIHEDRAL>
0

>  <SCORE.SYSTEM.SOLV>
0

>  <SCORE.SYSTEM.norm>
0

>  <SCORE.heavy>
30

>  <SCORE.norm>
-0.722387

>  <RMSD>
18.753

$$$$
1uts_lig
 OpenBabel11021811413D
libRbt.so/2013.1/901 2013/11/27
 30 33  0  0  0  0  0  0  0  0999 V2000
  -14.4802   -6.6068   10.1734 N   0  0  0  0  0  0  0  0  0  0  0  0
  -13.1752   -5.6085    8.3466 C   0  0  0  0  0  0  0  0  0  0  0  0
   -9.0437   -4.1934    6.5067 C   0  0  0  0  0  0  0  0  0  0  0  0
  -13.2323   -5.1687    6.8808 C   0  0  0  0  0  0  0  0  0  0  0  0
  -11.9562   -4.6387    6.4926 O   0  0  0  0  0  0  0  0  0  0  0  0
  -14.4888   -6.2943    8.7264 C   0  0  0  0  0  0  0  0  0  0  0  0
   -9.6916   -3.7313    7.7553 N   0  0  0  0  0  0  0  0  0  0  0  0
   -9.2047   -4.5428    8.9022 C   0  0  0  0  0  0  0  0  0  0  0  0
  -10.2868   -5.5398    9.3273 C   0  0  0  0  0  0  0  0  0  0  0  0
   -9.6472   -6.7805    9.8198 N   0  0  0  0  0  0  0  0  0  0  0  0
   -9.1734   -7.5852    8.6571 C   0  0  0  0  0  0  0  0  0  0  0  0
  -10.6318   -7.5584   10.6239 C   0  0  0  0  0  0  0  0  0  0  0  0
   -8.5119   -8.8767    9.1647 C   0  0  0  0  0  0  0  0  0  0  0  0
   -9.9716   -8.8537   11.1297 C   0  0  0  0  0  0  0  0  0  0  0  0
   -9.4965   -9.6557    9.9680 N   0  0  0  0  0  0  0  0  0  0  0  0
  -10.8061   -7.9661    5.1373 C   0  0  0  0  0  0  0  0  0  0  0  0
   -5.9871  -11.9304    3.4431 N   0  0  0  0  0  0  0  0  0  0  0  0
   -9.4025   -7.7856    5.1113 C   0  0  0  0  0  0  0  0  0  0  0  0
   -8.8380   -6.5604    5.5561 C   0  0  0  0  0  0  0  0  0  0  0  0
   -9.6781   -5.5157    6.0303 C   0  0  0  0  0  0  0  0  0  0  0  0
  -11.0942   -5.6938    6.0403 C   0  0  0  0  0  0  0  0  0  0  0  0
  -11.6534   -6.9236    5.5968 C   0  0  0  0  0  0  0  0  0  0  0  0
   -5.0554  -11.8257    4.5008 C   0  0  0  0  0  0  0  0  0  0  0  0
   -5.4088  -10.7800    5.3836 C   0  0  0  0  0  0  0  0  0  0  0  0
   -7.4006   -9.1689    5.3521 C   0  0  0  0  0  0  0  0  0  0  0  0
   -8.5808   -8.8196    4.6411 C   0  0  0  0  0  0  0  0  0  0  0  0
   -8.9297   -9.5249    3.4566 C   0  0  0  0  0  0  0  0  0  0  0  0
   -8.1008  -10.5789    2.9861 C   0  0  0  0  0  0  0  0  0  0  0  0
   -6.9215  -10.9372    3.7113 C   0  0  0  0  0  0  0  0  0  0  0  0
   -6.5743  -10.2402    4.8830 C   0  0  0  0  0  0  0  0  0  0  0  0
  1  6  1  0  0  0  0
  2  4  1  0  0  0  0
  3  7  1  0  0  0  0
  4  5  1  0  0  0  0
  6  2  1  0  0  0  0
  7  8  1  0  0  0  0
  8  9  1  0  0  0  0
  9 10  1  0  0  0  0
 10 11  1  0  0  0  0
 10 12  1  0  0  0  0
 11 13  1  0  0  0  0
 13 15  1  0  0  0  0
 14 12  1  0  0  0  0
 15 14  1  0  0  0  0
 16 18  2  0  0  0  0
 16 22  1  0  0  0  0
 17 23  1  0  0  0  0
 17 29  1  0  0  0  0
 18 19  1  0  0  0  0
 18 26  1  0  0  0  0
 19 20  2  0  0  0  0
 20  3  1  0  0  0  0
 20 21  1  0  0  0  0
 21  5  1  0  0  0  0
 21 22  2  0  0  0  0
 23 24  2  0  0  0  0
 24 30  1  0  0  0  0
 25 26  2  0  0  0  0
 25 30  1  0  0  0  0
 26 27  1  0  0  0  0
 27 28  2  0  0  0  0
 28 29  1  0  0  0  0
 29 30  2  0  0  0  0
M  END
>  <CHROM.1>
-163.08413772,-174.68390728,76.08127796,86.94094028,-174.84899083,-104.78824359
146.85542912,-77.04361948,-135.37331576,-137.07938491,-158.84653575,-9.67160797
-7.59718452,6.94544897,-2.76039164,0.83584386,-1.32592416

>  <Name>
1uts_lig

>  <RI>
0

>  <Rbt.Current_Directory>
/home/itssahil/PROJECTS/Mol_Feturizer/New_Systems/rnas/1uts

>  <Rbt.Executable>
rbdock ($Id: //depot/dev/client3/rdock/2013.1/src/exe/rbdock.cxx#4 $)

>  <Rbt.Library>
libRbt.so (2013.1, Build901 2013/11/27)

>  <Rbt.Parameter_File>
/export/apps/rDock/src/rDock_2013.1_src/data/scripts/dock_solv.prm

>  <Rbt.Receptor>
prm/blind_docking_20.prm

>  <SCORE>
-17.1426

>  <SCORE.INTER>
-16.6107

>  <SCORE.INTER.CONST>
1

>  <SCORE.INTER.POLAR>
-1.19227

>  <SCORE.INTER.ROT>
10

>  <SCORE.INTER.SOLV>
7.25284

>  <SCORE.INTER.VDW>
-19.7838

>  <SCORE.INTER.norm>
-0.55369

>  <SCORE.INTRA>
-1.98528

>  <SCORE.INTRA.DIHEDRAL>
-2.86225

>  <SCORE.INTRA.DIHEDRAL.0>
18.0451

>  <SCORE.INTRA.POLAR>
-0.567108

>  <SCORE.INTRA.POLAR.0>
-0.196815

>  <SCORE.INTRA.REPUL>
0

>  <SCORE.INTRA.REPUL.0>
0

>  <SCORE.INTRA.SOLV>
0.0742557

>  <SCORE.INTRA.SOLV.lig_0>
-14.7906

>  <SCORE.INTRA.VDW>
1.33688

>  <SCORE.INTRA.VDW.0>
-0.411701

>  <SCORE.INTRA.norm>
-0.066176

>  <SCORE.RESTR>
1.45337

>  <SCORE.RESTR.CAVITY>
1.45337

>  <SCORE.RESTR.norm>
0.0484458

>  <SCORE.SYSTEM>
0

>  <SCORE.SYSTEM.CONST>
0

>  <SCORE.SYSTEM.DIHEDRAL>
0

>  <SCORE.SYSTEM.SOLV>
0

>  <SCORE.SYSTEM.norm>
0

>  <SCORE.heavy>
30

>  <SCORE.norm>
-0.57142

>  <RMSD>
18.759

$$$$
1uts_lig
 OpenBabel11021811413D
libRbt.so/2013.1/901 2013/11/27
 30 33  0  0  0  0  0  0  0  0999 V2000
  -10.2833   -4.1917    2.5750 N   0  0  0  0  0  0  0  0  0  0  0  0
  -12.6244   -4.7857    3.0267 C   0  0  0  0  0  0  0  0  0  0  0  0
  -10.3016   -7.6189    5.6648 C   0  0  0  0  0  0  0  0  0  0  0  0
  -12.4205   -5.4436    4.3944 C   0  0  0  0  0  0  0  0  0  0  0  0
  -11.2423   -4.9042    5.0114 O   0  0  0  0  0  0  0  0  0  0  0  0
  -11.4053   -5.0552    2.1426 C   0  0  0  0  0  0  0  0  0  0  0  0
  -10.2007   -8.9784    6.2424 N   0  0  0  0  0  0  0  0  0  0  0  0
   -9.4114   -9.8514    5.3337 C   0  0  0  0  0  0  0  0  0  0  0  0
   -7.9358   -9.4436    5.3763 C   0  0  0  0  0  0  0  0  0  0  0  0
   -7.0909  -10.6180    5.0633 N   0  0  0  0  0  0  0  0  0  0  0  0
   -5.6541  -10.2326    5.1670 C   0  0  0  0  0  0  0  0  0  0  0  0
   -7.4026  -11.0983    3.6874 C   0  0  0  0  0  0  0  0  0  0  0  0
   -4.7734  -11.4491    4.8387 C   0  0  0  0  0  0  0  0  0  0  0  0
   -6.5187  -12.3142    3.3561 C   0  0  0  0  0  0  0  0  0  0  0  0
   -5.0838  -11.9291    3.4622 N   0  0  0  0  0  0  0  0  0  0  0  0
  -11.5086   -4.7725    8.7722 C   0  0  0  0  0  0  0  0  0  0  0  0
  -10.8622   -7.7930   14.4772 N   0  0  0  0  0  0  0  0  0  0  0  0
  -11.0795   -6.0737    9.1270 C   0  0  0  0  0  0  0  0  0  0  0  0
  -10.6902   -6.9913    8.1151 C   0  0  0  0  0  0  0  0  0  0  0  0
  -10.7272   -6.6059    6.7468 C   0  0  0  0  0  0  0  0  0  0  0  0
  -11.1757   -5.2988    6.3902 C   0  0  0  0  0  0  0  0  0  0  0  0
  -11.5612   -4.3835    7.4076 C   0  0  0  0  0  0  0  0  0  0  0  0
  -10.6454   -9.1642   14.2116 C   0  0  0  0  0  0  0  0  0  0  0  0
  -10.6179   -9.4111   12.8202 C   0  0  0  0  0  0  0  0  0  0  0  0
  -10.8584   -7.8099   10.8347 C   0  0  0  0  0  0  0  0  0  0  0  0
  -11.0471   -6.4469   10.4780 C   0  0  0  0  0  0  0  0  0  0  0  0
  -11.1958   -5.4625   11.4934 C   0  0  0  0  0  0  0  0  0  0  0  0
  -11.1536   -5.8409   12.8626 C   0  0  0  0  0  0  0  0  0  0  0  0
  -10.9497   -7.2108   13.2184 C   0  0  0  0  0  0  0  0  0  0  0  0
  -10.8029   -8.1863   12.2152 C   0  0  0  0  0  0  0  0  0  0  0  0
  1  6  1  0  0  0  0
  2  4  1  0  0  0  0
  3  7  1  0  0  0  0
  4  5  1  0  0  0  0
  6  2  1  0  0  0  0
  7  8  1  0  0  0  0
  8  9  1  0  0  0  0
  9 10  1  0  0  0  0
 10 11  1  0  0  0  0
 10 12  1  0  0  0  0
 11 13  1  0  0  0  0
 13 15  1  0  0  0  0
 14 12  1  0  0  0  0
 15 14  1  0  0  0  0
 16 18  2  0  0  0  0
 16 22  1  0  0  0  0
 17 23  1  0  0  0  0
 17 29  1  0  0  0  0
 18 19  1  0  0  0  0
 18 26  1  0  0  0  0
 19 20  2  0  0  0  0
 20  3  1  0  0  0  0
 20 21  1  0  0  0  0
 21  5  1  0  0  0  0
 21 22  2  0  0  0  0
 23 24  2  0  0  0  0
 24 30  1  0  0  0  0
 25 26  2  0  0  0  0
 25 30  1  0  0  0  0
 26 27  1  0  0  0  0
 27 28  2  0  0  0  0
 28 29  1  0  0  0  0
 29 30  2  0  0  0  0
M  END
>  <CHROM.1>
175.82759465,59.55467563,-162.91755203,168.46648621,-75.51347559,71.45495865
152.26975459,-177.43052682,168.44291326,12.86911178,78.96386460,-9.83512902
-7.68974775,7.29613552,0.95473153,0.89088496,-1.35495292

>  <Name>
1uts_lig

>  <RI>
0

>  <Rbt.Current_Directory>
/home/itssahil/PROJECTS/Mol_Feturizer/New_Systems/rnas/1uts

>  <Rbt.Executable>
rbdock ($Id: //depot/dev/client3/rdock/2013.1/src/exe/rbdock.cxx#4 $)

>  <Rbt.Library>
libRbt.so (2013.1, Build901 2013/11/27)

>  <Rbt.Parameter_File>
/export/apps/rDock/src/rDock_2013.1_src/data/scripts/dock_solv.prm

>  <Rbt.Receptor>
prm/blind_docking_100.prm

>  <SCORE>
-25.0553

>  <SCORE.INTER>
-27.9431

>  <SCORE.INTER.CONST>
1

>  <SCORE.INTER.POLAR>
-2.62837

>  <SCORE.INTER.ROT>
10

>  <SCORE.INTER.SOLV>
9.27511

>  <SCORE.INTER.VDW>
-23.2259

>  <SCORE.INTER.norm>
-0.931435

>  <SCORE.INTRA>
-1.18211

>  <SCORE.INTRA.DIHEDRAL>
-7.54753

>  <SCORE.INTRA.DIHEDRAL.0>
18.0451

>  <SCORE.INTRA.POLAR>
-0.430349

>  <SCORE.INTRA.POLAR.0>
-0.196815

>  <SCORE.INTRA.REPUL>
0

>  <SCORE.INTRA.REPUL.0>
0

>  <SCORE.INTRA.SOLV>
-0.0625205

>  <SCORE.INTRA.SOLV.lig_0>
-14.7906

>  <SCORE.INTRA.VDW>
4.08611

>  <SCORE.INTRA.VDW.0>
-0.411701

>  <SCORE.INTRA.norm>
-0.0394035

>  <SCORE.RESTR>
4.06984

>  <SCORE.RESTR.CAVITY>
4.06984

>  <SCORE.RESTR.norm>
0.135661

>  <SCORE.SYSTEM>
0

>  <SCORE.SYSTEM.CONST>
0

>  <SCORE.SYSTEM.DIHEDRAL>
0

>  <SCORE.SYSTEM.SOLV>
0

>  <SCORE.SYSTEM.norm>
0

>  <SCORE.heavy>
30

>  <SCORE.norm>
-0.835178

>  <RMSD>
18.778

$$$$
1uts_lig
 OpenBabel11021811413D
libRbt.so/2013.1/901 2013/11/27
 30 33  0  0  0  0  0  0  0  0999 V2000
  -10.8317   -8.7817   13.0466 N   0  0  0  0  0  0  0  0  0  0  0  0
  -11.6434   -6.9045   11.6848 C   0  0  0  0  0  0  0  0  0  0  0  0
  -11.5774   -7.1484    6.4551 C   0  0  0  0  0  0  0  0  0  0  0  0
  -10.4938   -6.9943   10.6770 C   0  0  0  0  0  0  0  0  0  0  0  0
  -11.0309   -7.0960    9.3499 O   0  0  0  0  0  0  0  0  0  0  0  0
  -11.1475   -7.3356   13.0662 C   0  0  0  0  0  0  0  0  0  0  0  0
  -12.3755   -6.4695    7.5012 N   0  0  0  0  0  0  0  0  0  0  0  0
  -12.9818   -5.2314    6.9441 C   0  0  0  0  0  0  0  0  0  0  0  0
  -13.1539   -4.1931    8.0566 C   0  0  0  0  0  0  0  0  0  0  0  0
  -11.9401   -3.3495    8.1351 N   0  0  0  0  0  0  0  0  0  0  0  0
  -10.8758   -4.0858    8.8760 C   0  0  0  0  0  0  0  0  0  0  0  0
  -12.2696   -2.0731    8.8300 C   0  0  0  0  0  0  0  0  0  0  0  0
   -9.6147   -3.2110    8.9629 C   0  0  0  0  0  0  0  0  0  0  0  0
  -11.0066   -1.1978    8.9209 C   0  0  0  0  0  0  0  0  0  0  0  0
   -9.9433   -1.9347    9.6589 N   0  0  0  0  0  0  0  0  0  0  0  0
   -8.0140   -9.0335    8.1767 C   0  0  0  0  0  0  0  0  0  0  0  0
   -4.7762  -11.9425    3.3961 N   0  0  0  0  0  0  0  0  0  0  0  0
   -8.2492   -9.0966    6.7824 C   0  0  0  0  0  0  0  0  0  0  0  0
   -9.4060   -8.4840    6.2312 C   0  0  0  0  0  0  0  0  0  0  0  0
  -10.3272   -7.8048    7.0750 C   0  0  0  0  0  0  0  0  0  0  0  0
  -10.0966   -7.7564    8.4827 C   0  0  0  0  0  0  0  0  0  0  0  0
   -8.9352   -8.3687    9.0285 C   0  0  0  0  0  0  0  0  0  0  0  0
   -5.6510  -13.0150    3.1098 C   0  0  0  0  0  0  0  0  0  0  0  0
   -6.8784  -12.8624    3.7939 C   0  0  0  0  0  0  0  0  0  0  0  0
   -7.6986  -11.0070    5.3588 C   0  0  0  0  0  0  0  0  0  0  0  0
   -7.3372   -9.7693    5.9570 C   0  0  0  0  0  0  0  0  0  0  0  0
   -6.0524   -9.2115    5.7111 C   0  0  0  0  0  0  0  0  0  0  0  0
   -5.1323   -9.8899    4.8667 C   0  0  0  0  0  0  0  0  0  0  0  0
   -5.5039  -11.1280    4.2553 C   0  0  0  0  0  0  0  0  0  0  0  0
   -6.7744  -11.6816    4.4979 C   0  0  0  0  0  0  0  0  0  0  0  0
  1  6  1  0  0  0  0
  2  4  1  0  0  0  0
  3  7  1  0  0  0  0
  4  5  1  0  0  0  0
  6  2  1  0  0  0  0
  7  8  1  0  0  0  0
  8  9  1  0  0  0  0
  9 10  1  0  0  0  0
 10 11  1  0  0  0  0
 10 12  1  0  0  0  0
 11 13  1  0  0  0  0
 13 15  1  0  0  0  0
 14 12  1  0  0  0  0
 15 14  1  0  0  0  0
 16 18  2  0  0  0  0
 16 22  1  0  0  0  0
 17 23  1  0  0  0  0
 17 29  1  0  0  0  0
 18 19  1  0  0  0  0
 18 26  1  0  0  0  0
 19 20  2  0  0  0  0
 20  3  1  0  0  0  0
 20 21  1  0  0  0  0
 21  5  1  0  0  0  0
 21 22  2  0  0  0  0
 23 24  2  0  0  0  0
 24 30  1  0  0  0  0
 25 26  2  0  0  0  0
 25 30  1  0  0  0  0
 26 27  1  0  0  0  0
 27 28  2  0  0  0  0
 28 29  1  0  0  0  0
 29 30  2  0  0  0  0
M  END
>  <CHROM.1>
-48.96419452,158.19056511,144.47771806,-154.39638224,-67.69968204,-150.44030814
90.50293222,-79.39401098,109.29221789,-178.48888370,-171.08383520,-9.49865324
-7.43440163,7.69039530,3.01327177,1.02229981,-0.80555731

>  <Name>
1uts_lig

>  <RI>
0

>  <Rbt.Current_Directory>
/home/itssahil/PROJECTS/Mol_Feturizer/New_Systems/rnas/1uts

>  <Rbt.Executable>
rbdock ($Id: //depot/dev/client3/rdock/2013.1/src/exe/rbdock.cxx#4 $)

>  <Rbt.Library>
libRbt.so (2013.1, Build901 2013/11/27)

>  <Rbt.Parameter_File>
/export/apps/rDock/src/rDock_2013.1_src/data/scripts/dock_solv.prm

>  <Rbt.Receptor>
prm/blind_docking_20.prm

>  <SCORE>
-15.7965

>  <SCORE.INTER>
-22.2687

>  <SCORE.INTER.CONST>
1

>  <SCORE.INTER.POLAR>
-0.987171

>  <SCORE.INTER.ROT>
10

>  <SCORE.INTER.SOLV>
9.36305

>  <SCORE.INTER.VDW>
-24.9429

>  <SCORE.INTER.norm>
-0.742291

>  <SCORE.INTRA>
4.02397

>  <SCORE.INTRA.DIHEDRAL>
-0.208272

>  <SCORE.INTRA.DIHEDRAL.0>
18.0451

>  <SCORE.INTRA.POLAR>
-0.266012

>  <SCORE.INTRA.POLAR.0>
-0.196815

>  <SCORE.INTRA.REPUL>
0

>  <SCORE.INTRA.REPUL.0>
0

>  <SCORE.INTRA.SOLV>
0.322014

>  <SCORE.INTRA.SOLV.lig_0>
-14.7906

>  <SCORE.INTRA.VDW>
4.87154

>  <SCORE.INTRA.VDW.0>
-0.411701

>  <SCORE.INTRA.norm>
0.134132

>  <SCORE.RESTR>
2.44828

>  <SCORE.RESTR.CAVITY>
2.44828

>  <SCORE.RESTR.norm>
0.0816093

>  <SCORE.SYSTEM>
0

>  <SCORE.SYSTEM.CONST>
0

>  <SCORE.SYSTEM.DIHEDRAL>
0

>  <SCORE.SYSTEM.SOLV>
0

>  <SCORE.SYSTEM.norm>
0

>  <SCORE.heavy>
30

>  <SCORE.norm>
-0.526549

>  <RMSD>
18.790

$$$$
1uts_lig
 OpenBabel11021811413D
libRbt.so/2013.1/901 2013/11/27
 30 33  0  0  0  0  0  0  0  0999 V2000
   -6.6409   -8.6044    0.3660 N   0  0  0  0  0  0  0  0  0  0  0  0
   -7.8803   -8.2541    2.4585 C   0  0  0  0  0  0  0  0  0  0  0  0
   -9.0708   -5.6612    4.7443 C   0  0  0  0  0  0  0  0  0  0  0  0
   -6.5071   -8.0929    3.1171 C   0  0  0  0  0  0  0  0  0  0  0  0
   -6.5345   -6.9662    4.0056 O   0  0  0  0  0  0  0  0  0  0  0  0
   -7.7475   -9.1191    1.2038 C   0  0  0  0  0  0  0  0  0  0  0  0
  -10.2036   -5.0312    5.4598 N   0  0  0  0  0  0  0  0  0  0  0  0
  -11.3887   -5.9279    5.4094 C   0  0  0  0  0  0  0  0  0  0  0  0
  -12.6078   -5.2082    5.9935 C   0  0  0  0  0  0  0  0  0  0  0  0
  -12.4476   -5.0783    7.4593 N   0  0  0  0  0  0  0  0  0  0  0  0
  -13.0483   -6.2684    8.1276 C   0  0  0  0  0  0  0  0  0  0  0  0
  -13.1172   -3.8294    7.9207 C   0  0  0  0  0  0  0  0  0  0  0  0
  -12.8873   -6.1351    9.6506 C   0  0  0  0  0  0  0  0  0  0  0  0
  -12.9598   -3.6968    9.4462 C   0  0  0  0  0  0  0  0  0  0  0  0
  -13.5578   -4.8868   10.1129 N   0  0  0  0  0  0  0  0  0  0  0  0
   -7.1590   -8.6429    7.3268 C   0  0  0  0  0  0  0  0  0  0  0  0
  -10.7715   -9.1785   12.6788 N   0  0  0  0  0  0  0  0  0  0  0  0
   -8.3684   -8.0258    7.7267 C   0  0  0  0  0  0  0  0  0  0  0  0
   -8.9824   -7.0601    6.8853 C   0  0  0  0  0  0  0  0  0  0  0  0
   -8.3877   -6.7134    5.6411 C   0  0  0  0  0  0  0  0  0  0  0  0
   -7.1596   -7.3248    5.2473 C   0  0  0  0  0  0  0  0  0  0  0  0
   -6.5512   -8.2931    6.0922 C   0  0  0  0  0  0  0  0  0  0  0  0
  -11.0173   -7.8425   13.0692 C   0  0  0  0  0  0  0  0  0  0  0  0
  -10.5439   -6.9359   12.0937 C   0  0  0  0  0  0  0  0  0  0  0  0
   -9.4020   -7.3548    9.8388 C   0  0  0  0  0  0  0  0  0  0  0  0
   -8.9480   -8.3717    8.9555 C   0  0  0  0  0  0  0  0  0  0  0  0
   -9.0892   -9.7397    9.3172 C   0  0  0  0  0  0  0  0  0  0  0  0
   -9.6853  -10.0892   10.5590 C   0  0  0  0  0  0  0  0  0  0  0  0
  -10.1537   -9.0642   11.4393 C   0  0  0  0  0  0  0  0  0  0  0  0
  -10.0143   -7.7102   11.0834 C   0  0  0  0  0  0  0  0  0  0  0  0
  1  6  1  0  0  0  0
  2  4  1  0  0  0  0
  3  7  1  0  0  0  0
  4  5  1  0  0  0  0
  6  2  1  0  0  0  0
  7  8  1  0  0  0  0
  8  9  1  0  0  0  0
  9 10  1  0  0  0  0
 10 11  1  0  0  0  0
 10 12  1  0  0  0  0
 11 13  1  0  0  0  0
 13 15  1  0  0  0  0
 14 12  1  0  0  0  0
 15 14  1  0  0  0  0
 16 18  2  0  0  0  0
 16 22  1  0  0  0  0
 17 23  1  0  0  0  0
 17 29  1  0  0  0  0
 18 19  1  0  0  0  0
 18 26  1  0  0  0  0
 19 20  2  0  0  0  0
 20  3  1  0  0  0  0
 20 21  1  0  0  0  0
 21  5  1  0  0  0  0
 21 22  2  0  0  0  0
 23 24  2  0  0  0  0
 24 30  1  0  0  0  0
 25 26  2  0  0  0  0
 25 30  1  0  0  0  0
 26 27  1  0  0  0  0
 27 28  2  0  0  0  0
 28 29  1  0  0  0  0
 29 30  2  0  0  0  0
M  END
>  <CHROM.1>
-168.54090918,161.36308015,-79.81741472,79.57460222,-49.72108156,-172.97374050
-71.25126131,-90.43021557,132.98957690,7.74932586,-115.45738924,-9.79154949
-7.11482456,7.33423087,0.89191876,0.70484763,-1.22052934

>  <Name>
1uts_lig

>  <RI>
0

>  <Rbt.Current_Directory>
/home/itssahil/PROJECTS/Mol_Feturizer/New_Systems/rnas/1uts

>  <Rbt.Executable>
rbdock ($Id: //depot/dev/client3/rdock/2013.1/src/exe/rbdock.cxx#4 $)

>  <Rbt.Library>
libRbt.so (2013.1, Build901 2013/11/27)

>  <Rbt.Parameter_File>
/export/apps/rDock/src/rDock_2013.1_src/data/scripts/dock_solv.prm

>  <Rbt.Receptor>
prm/blind_docking_20.prm

>  <SCORE>
-25.0437

>  <SCORE.INTER>
-25.773

>  <SCORE.INTER.CONST>
1

>  <SCORE.INTER.POLAR>
-1.96413

>  <SCORE.INTER.ROT>
10

>  <SCORE.INTER.SOLV>
10.4216

>  <SCORE.INTER.VDW>
-24.3755

>  <SCORE.INTER.norm>
-0.8591

>  <SCORE.INTRA>
-0.816717

>  <SCORE.INTRA.DIHEDRAL>
-3.82339

>  <SCORE.INTRA.DIHEDRAL.0>
18.0451

>  <SCORE.INTRA.POLAR>
0.196815

>  <SCORE.INTRA.POLAR.0>
-0.196815

>  <SCORE.INTRA.REPUL>
0

>  <SCORE.INTRA.REPUL.0>
0

>  <SCORE.INTRA.SOLV>
-0.136955

>  <SCORE.INTRA.SOLV.lig_0>
-14.7906

>  <SCORE.INTRA.VDW>
0.494282

>  <SCORE.INTRA.VDW.0>
-0.411701

>  <SCORE.INTRA.norm>
-0.0272239

>  <SCORE.RESTR>
1.546

>  <SCORE.RESTR.CAVITY>
1.546

>  <SCORE.RESTR.norm>
0.0515333

>  <SCORE.SYSTEM>
0

>  <SCORE.SYSTEM.CONST>
0

>  <SCORE.SYSTEM.DIHEDRAL>
0

>  <SCORE.SYSTEM.SOLV>
0

>  <SCORE.SYSTEM.norm>
0

>  <SCORE.heavy>
30

>  <SCORE.norm>
-0.834791

>  <RMSD>
18.861

$$$$
1uts_lig
 OpenBabel11021811413D
libRbt.so/2013.1/901 2013/11/27
 30 33  0  0  0  0  0  0  0  0999 V2000
  -10.5810   -9.0976   13.4952 N   0  0  0  0  0  0  0  0  0  0  0  0
  -10.6115   -7.9759   11.3093 C   0  0  0  0  0  0  0  0  0  0  0  0
  -10.7572   -6.4648    7.8625 C   0  0  0  0  0  0  0  0  0  0  0  0
   -9.2380   -7.3058   11.4085 C   0  0  0  0  0  0  0  0  0  0  0  0
   -9.0072   -6.5164   10.2324 O   0  0  0  0  0  0  0  0  0  0  0  0
  -10.5765   -9.3236   12.0322 C   0  0  0  0  0  0  0  0  0  0  0  0
  -11.9903   -7.2835    7.8996 N   0  0  0  0  0  0  0  0  0  0  0  0
  -13.1824   -6.3956    7.8598 C   0  0  0  0  0  0  0  0  0  0  0  0
  -13.1361   -5.4138    9.0343 C   0  0  0  0  0  0  0  0  0  0  0  0
  -12.5175   -4.1443    8.5909 N   0  0  0  0  0  0  0  0  0  0  0  0
  -11.4532   -3.7509    9.5586 C   0  0  0  0  0  0  0  0  0  0  0  0
  -13.5640   -3.0863    8.5103 C   0  0  0  0  0  0  0  0  0  0  0  0
  -10.8109   -2.4305    9.1034 C   0  0  0  0  0  0  0  0  0  0  0  0
  -12.9213   -1.7627    8.0581 C   0  0  0  0  0  0  0  0  0  0  0  0
  -11.8568   -1.3717    9.0238 N   0  0  0  0  0  0  0  0  0  0  0  0
   -7.2255   -9.0521    8.0813 C   0  0  0  0  0  0  0  0  0  0  0  0
   -6.5477  -12.5157    2.7486 N   0  0  0  0  0  0  0  0  0  0  0  0
   -8.0508   -9.0703    6.9316 C   0  0  0  0  0  0  0  0  0  0  0  0
   -9.1940   -8.2297    6.8674 C   0  0  0  0  0  0  0  0  0  0  0  0
   -9.5103   -7.3677    7.9531 C   0  0  0  0  0  0  0  0  0  0  0  0
   -8.6860   -7.3629    9.1182 C   0  0  0  0  0  0  0  0  0  0  0  0
   -7.5412   -8.2042    9.1756 C   0  0  0  0  0  0  0  0  0  0  0  0
   -5.1561  -12.4934    2.9952 C   0  0  0  0  0  0  0  0  0  0  0  0
   -4.8498  -11.6491    4.0865 C   0  0  0  0  0  0  0  0  0  0  0  0
   -6.3778  -10.2648    5.6073 C   0  0  0  0  0  0  0  0  0  0  0  0
   -7.7333   -9.9239    5.8657 C   0  0  0  0  0  0  0  0  0  0  0  0
   -8.7666  -10.4556    5.0460 C   0  0  0  0  0  0  0  0  0  0  0  0
   -8.4442  -11.3281    3.9716 C   0  0  0  0  0  0  0  0  0  0  0  0
   -7.0807  -11.6802    3.7228 C   0  0  0  0  0  0  0  0  0  0  0  0
   -6.0570  -11.1547    4.5324 C   0  0  0  0  0  0  0  0  0  0  0  0
  1  6  1  0  0  0  0
  2  4  1  0  0  0  0
  3  7  1  0  0  0  0
  4  5  1  0  0  0  0
  6  2  1  0  0  0  0
  7  8  1  0  0  0  0
  8  9  1  0  0  0  0
  9 10  1  0  0  0  0
 10 11  1  0  0  0  0
 10 12  1  0  0  0  0
 11 13  1  0  0  0  0
 13 15  1  0  0  0  0
 14 12  1  0  0  0  0
 15 14  1  0  0  0  0
 16 18  2  0  0  0  0
 16 22  1  0  0  0  0
 17 23  1  0  0  0  0
 17 29  1  0  0  0  0
 18 19  1  0  0  0  0
 18 26  1  0  0  0  0
 19 20  2  0  0  0  0
 20  3  1  0  0  0  0
 20 21  1  0  0  0  0
 21  5  1  0  0  0  0
 21 22  2  0  0  0  0
 23 24  2  0  0  0  0
 24 30  1  0  0  0  0
 25 26  2  0  0  0  0
 25 30  1  0  0  0  0
 26 27  1  0  0  0  0
 27 28  2  0  0  0  0
 28 29  1  0  0  0  0
 29 30  2  0  0  0  0
M  END
>  <CHROM.1>
45.36691672,148.40037382,178.01489044,-75.40051788,74.37834925,-57.63572165
94.68880962,-130.52525848,-30.03725365,68.35619533,119.50965300,-9.56928005
-7.64725437,7.81958428,-2.82142118,0.98790392,-1.32909040

>  <Name>
1uts_lig

>  <RI>
0

>  <Rbt.Current_Directory>
/home/itssahil/PROJECTS/Mol_Feturizer/New_Systems/rnas/1uts

>  <Rbt.Executable>
rbdock ($Id: //depot/dev/client3/rdock/2013.1/src/exe/rbdock.cxx#4 $)

>  <Rbt.Library>
libRbt.so (2013.1, Build901 2013/11/27)

>  <Rbt.Parameter_File>
/export/apps/rDock/src/rDock_2013.1_src/data/scripts/dock_solv.prm

>  <Rbt.Receptor>
prm/blind_docking_20.prm

>  <SCORE>
-23.4471

>  <SCORE.INTER>
-28.4212

>  <SCORE.INTER.CONST>
1

>  <SCORE.INTER.POLAR>
-2.31762

>  <SCORE.INTER.ROT>
10

>  <SCORE.INTER.SOLV>
8.06087

>  <SCORE.INTER.VDW>
-24.1757

>  <SCORE.INTER.norm>
-0.947373

>  <SCORE.INTRA>
2.38687

>  <SCORE.INTRA.DIHEDRAL>
-0.364214

>  <SCORE.INTRA.DIHEDRAL.0>
18.0451

>  <SCORE.INTRA.POLAR>
0.196815

>  <SCORE.INTRA.POLAR.0>
-0.196815

>  <SCORE.INTRA.REPUL>
0

>  <SCORE.INTRA.REPUL.0>
0

>  <SCORE.INTRA.SOLV>
-0.220219

>  <SCORE.INTRA.SOLV.lig_0>
-14.7906

>  <SCORE.INTRA.VDW>
2.00992

>  <SCORE.INTRA.VDW.0>
-0.411701

>  <SCORE.INTRA.norm>
0.0795624

>  <SCORE.RESTR>
2.58718

>  <SCORE.RESTR.CAVITY>
2.58718

>  <SCORE.RESTR.norm>
0.0862393

>  <SCORE.SYSTEM>
0

>  <SCORE.SYSTEM.CONST>
0

>  <SCORE.SYSTEM.DIHEDRAL>
0

>  <SCORE.SYSTEM.SOLV>
0

>  <SCORE.SYSTEM.norm>
0

>  <SCORE.heavy>
30

>  <SCORE.norm>
-0.781571

>  <RMSD>
18.867

$$$$
1uts_lig
 OpenBabel11021811413D
libRbt.so/2013.1/901 2013/11/27
 30 33  0  0  0  0  0  0  0  0999 V2000
  -11.0520   -9.0751   13.1140 N   0  0  0  0  0  0  0  0  0  0  0  0
   -9.4704   -7.6621   11.8734 C   0  0  0  0  0  0  0  0  0  0  0  0
   -9.1585   -5.1765    7.4054 C   0  0  0  0  0  0  0  0  0  0  0  0
   -8.7498   -7.4893   10.5333 C   0  0  0  0  0  0  0  0  0  0  0  0
   -9.7072   -7.1564    9.5173 O   0  0  0  0  0  0  0  0  0  0  0  0
  -10.4215   -8.8575   11.7925 C   0  0  0  0  0  0  0  0  0  0  0  0
   -9.8526   -4.5658    6.2490 N   0  0  0  0  0  0  0  0  0  0  0  0
  -11.1351   -5.2766    6.0022 C   0  0  0  0  0  0  0  0  0  0  0  0
  -12.2874   -4.5075    6.6550 C   0  0  0  0  0  0  0  0  0  0  0  0
  -12.2636   -4.7326    8.1178 N   0  0  0  0  0  0  0  0  0  0  0  0
  -12.5996   -6.1574    8.4023 C   0  0  0  0  0  0  0  0  0  0  0  0
  -13.2474   -3.8253    8.7734 C   0  0  0  0  0  0  0  0  0  0  0  0
  -12.5796   -6.3940    9.9211 C   0  0  0  0  0  0  0  0  0  0  0  0
  -13.2309   -4.0640   10.2940 C   0  0  0  0  0  0  0  0  0  0  0  0
  -13.5643   -5.4877   10.5772 N   0  0  0  0  0  0  0  0  0  0  0  0
   -8.6513   -9.4791    6.7385 C   0  0  0  0  0  0  0  0  0  0  0  0
   -6.6271  -10.2545    0.6284 N   0  0  0  0  0  0  0  0  0  0  0  0
   -8.3942   -8.5616    5.6919 C   0  0  0  0  0  0  0  0  0  0  0  0
   -8.5609   -7.1688    5.9146 C   0  0  0  0  0  0  0  0  0  0  0  0
   -8.9824   -6.6927    7.1865 C   0  0  0  0  0  0  0  0  0  0  0  0
   -9.2568   -7.6207    8.2356 C   0  0  0  0  0  0  0  0  0  0  0  0
   -9.0852   -9.0136    8.0078 C   0  0  0  0  0  0  0  0  0  0  0  0
   -6.2350   -8.9849    0.1465 C   0  0  0  0  0  0  0  0  0  0  0  0
   -6.4892   -7.9795    1.1068 C   0  0  0  0  0  0  0  0  0  0  0  0
   -7.4713   -8.1351    3.4680 C   0  0  0  0  0  0  0  0  0  0  0  0
   -7.9804   -9.0385    4.4402 C   0  0  0  0  0  0  0  0  0  0  0  0
   -8.0626  -10.4268    4.1434 C   0  0  0  0  0  0  0  0  0  0  0  0
   -7.6342  -10.9102    2.8775 C   0  0  0  0  0  0  0  0  0  0  0  0
   -7.1095  -10.0007    1.9067 C   0  0  0  0  0  0  0  0  0  0  0  0
   -7.0280   -8.6267    2.1983 C   0  0  0  0  0  0  0  0  0  0  0  0
  1  6  1  0  0  0  0
  2  4  1  0  0  0  0
  3  7  1  0  0  0  0
  4  5  1  0  0  0  0
  6  2  1  0  0  0  0
  7  8  1  0  0  0  0
  8  9  1  0  0  0  0
  9 10  1  0  0  0  0
 10 11  1  0  0  0  0
 10 12  1  0  0  0  0
 11 13  1  0  0  0  0
 13 15  1  0  0  0  0
 14 12  1  0  0  0  0
 15 14  1  0  0  0  0
 16 18  2  0  0  0  0
 16 22  1  0  0  0  0
 17 23  1  0  0  0  0
 17 29  1  0  0  0  0
 18 19  1  0  0  0  0
 18 26  1  0  0  0  0
 19 20  2  0  0  0  0
 20  3  1  0  0  0  0
 20 21  1  0  0  0  0
 21  5  1  0  0  0  0
 21 22  2  0  0  0  0
 23 24  2  0  0  0  0
 24 30  1  0  0  0  0
 25 26  2  0  0  0  0
 25 30  1  0  0  0  0
 26 27  1  0  0  0  0
 27 28  2  0  0  0  0
 28 29  1  0  0  0  0
 29 30  2  0  0  0  0
M  END
>  <CHROM.1>
-35.57757603,64.55814274,54.51123015,-151.46170901,176.42668926,97.32862889
-75.79660919,-67.62631460,-167.74461824,43.55206043,-116.98287945,-9.67191405
-7.37247002,6.90268684,-2.45780677,0.91360090,-1.16432505

>  <Name>
1uts_lig

>  <RI>
0

>  <Rbt.Current_Directory>
/home/itssahil/PROJECTS/Mol_Feturizer/New_Systems/rnas/1uts

>  <Rbt.Executable>
rbdock ($Id: //depot/dev/client3/rdock/2013.1/src/exe/rbdock.cxx#4 $)

>  <Rbt.Library>
libRbt.so (2013.1, Build901 2013/11/27)

>  <Rbt.Parameter_File>
/export/apps/rDock/src/rDock_2013.1_src/data/scripts/dock_solv.prm

>  <Rbt.Receptor>
prm/blind_docking_20.prm

>  <SCORE>
-21.4791

>  <SCORE.INTER>
-24.0804

>  <SCORE.INTER.CONST>
1

>  <SCORE.INTER.POLAR>
-2.51315

>  <SCORE.INTER.ROT>
10

>  <SCORE.INTER.SOLV>
8.22838

>  <SCORE.INTER.VDW>
-20.6859

>  <SCORE.INTER.norm>
-0.802678

>  <SCORE.INTRA>
0.270157

>  <SCORE.INTRA.DIHEDRAL>
-4.96732

>  <SCORE.INTRA.DIHEDRAL.0>
18.0451

>  <SCORE.INTRA.POLAR>
0.196815

>  <SCORE.INTRA.POLAR.0>
-0.196815

>  <SCORE.INTRA.REPUL>
0

>  <SCORE.INTRA.REPUL.0>
0

>  <SCORE.INTRA.SOLV>
0.0107111

>  <SCORE.INTRA.SOLV.lig_0>
-14.7906

>  <SCORE.INTRA.VDW>
2.07929

>  <SCORE.INTRA.VDW.0>
-0.411701

>  <SCORE.INTRA.norm>
0.00900523

>  <SCORE.RESTR>
2.33113

>  <SCORE.RESTR.CAVITY>
2.33113

>  <SCORE.RESTR.norm>
0.0777042

>  <SCORE.SYSTEM>
0

>  <SCORE.SYSTEM.CONST>
0

>  <SCORE.SYSTEM.DIHEDRAL>
0

>  <SCORE.SYSTEM.SOLV>
0

>  <SCORE.SYSTEM.norm>
0

>  <SCORE.heavy>
30

>  <SCORE.norm>
-0.715969

>  <RMSD>
18.881

$$$$
1uts_lig
 OpenBabel11021811413D
libRbt.so/2013.1/901 2013/11/27
 30 33  0  0  0  0  0  0  0  0999 V2000
   -4.4083  -11.9123    4.7189 N   0  0  0  0  0  0  0  0  0  0  0  0
   -6.4824  -11.2512    3.5795 C   0  0  0  0  0  0  0  0  0  0  0  0
   -7.7363   -6.9448    5.0590 C   0  0  0  0  0  0  0  0  0  0  0  0
   -7.2119  -10.8891    4.8764 C   0  0  0  0  0  0  0  0  0  0  0  0
   -8.1446   -9.8293    4.6181 O   0  0  0  0  0  0  0  0  0  0  0  0
   -5.5023  -12.3951    3.8461 C   0  0  0  0  0  0  0  0  0  0  0  0
   -8.7537   -6.1628    4.3204 N   0  0  0  0  0  0  0  0  0  0  0  0
   -9.2374   -5.0420    5.1694 C   0  0  0  0  0  0  0  0  0  0  0  0
  -10.7647   -4.9570    5.0939 C   0  0  0  0  0  0  0  0  0  0  0  0
  -11.3586   -5.8334    6.1284 N   0  0  0  0  0  0  0  0  0  0  0  0
  -11.6310   -7.1759    5.5391 C   0  0  0  0  0  0  0  0  0  0  0  0
  -12.6205   -5.2200    6.6306 C   0  0  0  0  0  0  0  0  0  0  0  0
  -12.2516   -8.0879    6.6097 C   0  0  0  0  0  0  0  0  0  0  0  0
  -13.2448   -6.1343    7.7002 C   0  0  0  0  0  0  0  0  0  0  0  0
  -13.5144   -7.4756    7.1115 N   0  0  0  0  0  0  0  0  0  0  0  0
   -9.6591   -9.4996    8.0574 C   0  0  0  0  0  0  0  0  0  0  0  0
  -11.3316   -5.8160   13.0935 N   0  0  0  0  0  0  0  0  0  0  0  0
   -9.4655   -8.1215    8.3155 C   0  0  0  0  0  0  0  0  0  0  0  0
   -8.8414   -7.2994    7.3398 C   0  0  0  0  0  0  0  0  0  0  0  0
   -8.4131   -7.8556    6.1032 C   0  0  0  0  0  0  0  0  0  0  0  0
   -8.5946   -9.2488    5.8516 C   0  0  0  0  0  0  0  0  0  0  0  0
   -9.2228  -10.0662    6.8308 C   0  0  0  0  0  0  0  0  0  0  0  0
  -12.1095   -4.7945   12.5027 C   0  0  0  0  0  0  0  0  0  0  0  0
  -12.0178   -4.8409   11.0931 C   0  0  0  0  0  0  0  0  0  0  0  0
  -10.7414   -6.4432    9.5543 C   0  0  0  0  0  0  0  0  0  0  0  0
   -9.8891   -7.5806    9.5376 C   0  0  0  0  0  0  0  0  0  0  0  0
   -9.4727   -8.1725   10.7618 C   0  0  0  0  0  0  0  0  0  0  0  0
   -9.9102   -7.6287   11.9997 C   0  0  0  0  0  0  0  0  0  0  0  0
  -10.7789   -6.4928   12.0130 C   0  0  0  0  0  0  0  0  0  0  0  0
  -11.1914   -5.9056   10.8029 C   0  0  0  0  0  0  0  0  0  0  0  0
  1  6  1  0  0  0  0
  2  4  1  0  0  0  0
  3  7  1  0  0  0  0
  4  5  1  0  0  0  0
  6  2  1  0  0  0  0
  7  8  1  0  0  0  0
  8  9  1  0  0  0  0
  9 10  1  0  0  0  0
 10 11  1  0  0  0  0
 10 12  1  0  0  0  0
 11 13  1  0  0  0  0
 13 15  1  0  0  0  0
 14 12  1  0  0  0  0
 15 14  1  0  0  0  0
 16 18  2  0  0  0  0
 16 22  1  0  0  0  0
 17 23  1  0  0  0  0
 17 29  1  0  0  0  0
 18 19  1  0  0  0  0
 18 26  1  0  0  0  0
 19 20  2  0  0  0  0
 20  3  1  0  0  0  0
 20 21  1  0  0  0  0
 21  5  1  0  0  0  0
 21 22  2  0  0  0  0
 23 24  2  0  0  0  0
 24 30  1  0  0  0  0
 25 26  2  0  0  0  0
 25 30  1  0  0  0  0
 26 27  1  0  0  0  0
 27 28  2  0  0  0  0
 28 29  1  0  0  0  0
 29 30  2  0  0  0  0
M  END
>  <CHROM.1>
169.27837403,-179.15316725,76.80412455,-165.73356932,-67.81824645,-134.88026448
88.11001220,-92.69299941,-126.92336251,-79.39824303,122.16381988,-9.78347012
-7.67144787,7.37499625,-0.69589554,-0.78197289,1.63251455

>  <Name>
1uts_lig

>  <RI>
0

>  <Rbt.Current_Directory>
/home/itssahil/PROJECTS/Mol_Feturizer/New_Systems/rnas/1uts

>  <Rbt.Executable>
rbdock ($Id: //depot/dev/client3/rdock/2013.1/src/exe/rbdock.cxx#4 $)

>  <Rbt.Library>
libRbt.so (2013.1, Build901 2013/11/27)

>  <Rbt.Parameter_File>
/export/apps/rDock/src/rDock_2013.1_src/data/scripts/dock_solv.prm

>  <Rbt.Receptor>
prm/blind_docking_100.prm

>  <SCORE>
-19.7284

>  <SCORE.INTER>
-20.6941

>  <SCORE.INTER.CONST>
1

>  <SCORE.INTER.POLAR>
-1.6485

>  <SCORE.INTER.ROT>
10

>  <SCORE.INTER.SOLV>
8.27646

>  <SCORE.INTER.VDW>
-21.3265

>  <SCORE.INTER.norm>
-0.689802

>  <SCORE.INTRA>
-1.51957

>  <SCORE.INTRA.DIHEDRAL>
-1.0574

>  <SCORE.INTRA.DIHEDRAL.0>
18.0451

>  <SCORE.INTRA.POLAR>
0.196815

>  <SCORE.INTRA.POLAR.0>
-0.196815

>  <SCORE.INTRA.REPUL>
0

>  <SCORE.INTRA.REPUL.0>
0

>  <SCORE.INTRA.SOLV>
0.135517

>  <SCORE.INTRA.SOLV.lig_0>
-14.7906

>  <SCORE.INTRA.VDW>
-1.7278

>  <SCORE.INTRA.VDW.0>
-0.411701

>  <SCORE.INTRA.norm>
-0.0506522

>  <SCORE.RESTR>
2.48527

>  <SCORE.RESTR.CAVITY>
2.48527

>  <SCORE.RESTR.norm>
0.0828424

>  <SCORE.SYSTEM>
0

>  <SCORE.SYSTEM.CONST>
0

>  <SCORE.SYSTEM.DIHEDRAL>
0

>  <SCORE.SYSTEM.SOLV>
0

>  <SCORE.SYSTEM.norm>
0

>  <SCORE.heavy>
30

>  <SCORE.norm>
-0.657612

>  <RMSD>
18.887

$$$$
1uts_lig
 OpenBabel11021811413D
libRbt.so/2013.1/901 2013/11/27
 30 33  0  0  0  0  0  0  0  0999 V2000
  -10.6550   -8.9783   14.4528 N   0  0  0  0  0  0  0  0  0  0  0  0
  -10.0356   -8.0386   12.2686 C   0  0  0  0  0  0  0  0  0  0  0  0
  -10.8953   -7.7965    8.3146 C   0  0  0  0  0  0  0  0  0  0  0  0
   -9.7010   -8.5583   10.8675 C   0  0  0  0  0  0  0  0  0  0  0  0
   -8.6978   -7.7198   10.2757 O   0  0  0  0  0  0  0  0  0  0  0  0
  -10.9118   -9.0593   12.9971 C   0  0  0  0  0  0  0  0  0  0  0  0
  -10.9578   -6.3541    8.6430 N   0  0  0  0  0  0  0  0  0  0  0  0
  -10.9113   -5.5529    7.3913 C   0  0  0  0  0  0  0  0  0  0  0  0
  -12.2763   -4.9057    7.1397 C   0  0  0  0  0  0  0  0  0  0  0  0
  -12.2800   -3.5328    7.6930 N   0  0  0  0  0  0  0  0  0  0  0  0
  -12.1261   -3.5988    9.1748 C   0  0  0  0  0  0  0  0  0  0  0  0
  -13.5590   -2.8582    7.3325 C   0  0  0  0  0  0  0  0  0  0  0  0
  -12.1333   -2.1746    9.7535 C   0  0  0  0  0  0  0  0  0  0  0  0
  -13.5690   -1.4332    7.9146 C   0  0  0  0  0  0  0  0  0  0  0  0
  -13.4128   -1.4998    9.3943 N   0  0  0  0  0  0  0  0  0  0  0  0
   -6.8054   -8.9702    7.2612 C   0  0  0  0  0  0  0  0  0  0  0  0
   -6.6450  -10.6037    1.0257 N   0  0  0  0  0  0  0  0  0  0  0  0
   -7.8367   -9.0386    6.2943 C   0  0  0  0  0  0  0  0  0  0  0  0
   -9.1599   -8.6572    6.6424 C   0  0  0  0  0  0  0  0  0  0  0  0
   -9.4514   -8.2039    7.9582 C   0  0  0  0  0  0  0  0  0  0  0  0
   -8.4132   -8.1513    8.9363 C   0  0  0  0  0  0  0  0  0  0  0  0
   -7.0900   -8.5314    8.5813 C   0  0  0  0  0  0  0  0  0  0  0  0
   -6.8434   -9.3425    0.4194 C   0  0  0  0  0  0  0  0  0  0  0  0
   -7.2425   -8.3800    1.3744 C   0  0  0  0  0  0  0  0  0  0  0  0
   -7.6015   -8.5852    3.9029 C   0  0  0  0  0  0  0  0  0  0  0  0
   -7.5421   -9.4878    4.9993 C   0  0  0  0  0  0  0  0  0  0  0  0
   -7.1766  -10.8447    4.7814 C   0  0  0  0  0  0  0  0  0  0  0  0
   -6.8692  -11.2967    3.4696 C   0  0  0  0  0  0  0  0  0  0  0  0
   -6.9164  -10.3828    2.3706 C   0  0  0  0  0  0  0  0  0  0  0  0
   -7.2783   -9.0402    2.5842 C   0  0  0  0  0  0  0  0  0  0  0  0
  1  6  1  0  0  0  0
  2  4  1  0  0  0  0
  3  7  1  0  0  0  0
  4  5  1  0  0  0  0
  6  2  1  0  0  0  0
  7  8  1  0  0  0  0
  8  9  1  0  0  0  0
  9 10  1  0  0  0  0
 10 11  1  0  0  0  0
 10 12  1  0  0  0  0
 11 13  1  0  0  0  0
 13 15  1  0  0  0  0
 14 12  1  0  0  0  0
 15 14  1  0  0  0  0
 16 18  2  0  0  0  0
 16 22  1  0  0  0  0
 17 23  1  0  0  0  0
 17 29  1  0  0  0  0
 18 19  1  0  0  0  0
 18 26  1  0  0  0  0
 19 20  2  0  0  0  0
 20  3  1  0  0  0  0
 20 21  1  0  0  0  0
 21  5  1  0  0  0  0
 21 22  2  0  0  0  0
 23 24  2  0  0  0  0
 24 30  1  0  0  0  0
 25 26  2  0  0  0  0
 25 30  1  0  0  0  0
 26 27  1  0  0  0  0
 27 28  2  0  0  0  0
 28 29  1  0  0  0  0
 29 30  2  0  0  0  0
M  END
>  <CHROM.1>
78.96744978,-170.01832831,76.98824021,-177.30416464,149.92471673,109.71919216
94.68448676,-64.45876625,-111.82421890,-115.65816059,58.42458595,-9.61829979
-7.27558861,7.31700470,-2.60288520,0.96132594,-1.26630152

>  <Name>
1uts_lig

>  <RI>
0

>  <Rbt.Current_Directory>
/home/itssahil/PROJECTS/Mol_Feturizer/New_Systems/rnas/1uts

>  <Rbt.Executable>
rbdock ($Id: //depot/dev/client3/rdock/2013.1/src/exe/rbdock.cxx#4 $)

>  <Rbt.Library>
libRbt.so (2013.1, Build901 2013/11/27)

>  <Rbt.Parameter_File>
/export/apps/rDock/src/rDock_2013.1_src/data/scripts/dock_solv.prm

>  <Rbt.Receptor>
prm/blind_docking_20.prm

>  <SCORE>
-23.1717

>  <SCORE.INTER>
-30.2892

>  <SCORE.INTER.CONST>
1

>  <SCORE.INTER.POLAR>
-1.9755

>  <SCORE.INTER.ROT>
10

>  <SCORE.INTER.SOLV>
8.23402

>  <SCORE.INTER.VDW>
-26.6191

>  <SCORE.INTER.norm>
-1.00964

>  <SCORE.INTRA>
3.30493

>  <SCORE.INTRA.DIHEDRAL>
1.77931

>  <SCORE.INTRA.DIHEDRAL.0>
18.0451

>  <SCORE.INTRA.POLAR>
0.155919

>  <SCORE.INTRA.POLAR.0>
-0.196815

>  <SCORE.INTRA.REPUL>
0

>  <SCORE.INTRA.REPUL.0>
0

>  <SCORE.INTRA.SOLV>
-0.21447

>  <SCORE.INTRA.SOLV.lig_0>
-14.7906

>  <SCORE.INTRA.VDW>
1.99238

>  <SCORE.INTRA.VDW.0>
-0.411701

>  <SCORE.INTRA.norm>
0.110164

>  <SCORE.RESTR>
3.81264

>  <SCORE.RESTR.CAVITY>
3.81264

>  <SCORE.RESTR.norm>
0.127088

>  <SCORE.SYSTEM>
0

>  <SCORE.SYSTEM.CONST>
0

>  <SCORE.SYSTEM.DIHEDRAL>
0

>  <SCORE.SYSTEM.SOLV>
0

>  <SCORE.SYSTEM.norm>
0

>  <SCORE.heavy>
30

>  <SCORE.norm>
-0.772389

>  <RMSD>
18.889

$$$$
1uts_lig
 OpenBabel11021811413D
libRbt.so/2013.1/901 2013/11/27
 30 33  0  0  0  0  0  0  0  0999 V2000
   -6.9287   -8.3763    1.8571 N   0  0  0  0  0  0  0  0  0  0  0  0
   -8.9071   -9.8328    1.9009 C   0  0  0  0  0  0  0  0  0  0  0  0
   -7.7623   -6.5924    4.8517 C   0  0  0  0  0  0  0  0  0  0  0  0
   -8.7318  -10.2928    3.3511 C   0  0  0  0  0  0  0  0  0  0  0  0
   -7.8108   -9.4185    4.0199 O   0  0  0  0  0  0  0  0  0  0  0  0
   -7.5339   -9.5934    1.2707 C   0  0  0  0  0  0  0  0  0  0  0  0
   -8.8846   -5.8303    4.2587 N   0  0  0  0  0  0  0  0  0  0  0  0
   -9.4118   -4.8593    5.2539 C   0  0  0  0  0  0  0  0  0  0  0  0
  -10.6019   -5.4738    5.9966 C   0  0  0  0  0  0  0  0  0  0  0  0
  -11.1846   -4.4668    6.9117 N   0  0  0  0  0  0  0  0  0  0  0  0
  -10.2346   -4.2119    8.0326 C   0  0  0  0  0  0  0  0  0  0  0  0
  -12.4854   -4.9701    7.4366 C   0  0  0  0  0  0  0  0  0  0  0  0
  -10.8383   -3.1691    8.9873 C   0  0  0  0  0  0  0  0  0  0  0  0
  -13.0890   -3.9284    8.3957 C   0  0  0  0  0  0  0  0  0  0  0  0
  -12.1386   -3.6726    9.5136 N   0  0  0  0  0  0  0  0  0  0  0  0
   -9.2874   -9.7558    7.4750 C   0  0  0  0  0  0  0  0  0  0  0  0
  -11.0579   -7.3901   13.1507 N   0  0  0  0  0  0  0  0  0  0  0  0
   -9.2647   -8.4122    7.9194 C   0  0  0  0  0  0  0  0  0  0  0  0
   -8.7688   -7.3921    7.0644 C   0  0  0  0  0  0  0  0  0  0  0  0
   -8.2979   -7.7157    5.7623 C   0  0  0  0  0  0  0  0  0  0  0  0
   -8.3065   -9.0734    5.3223 C   0  0  0  0  0  0  0  0  0  0  0  0
   -8.8069  -10.0899    6.1813 C   0  0  0  0  0  0  0  0  0  0  0  0
  -10.9761   -8.7186   13.6264 C   0  0  0  0  0  0  0  0  0  0  0  0
  -10.5359   -9.5938   12.6075 C   0  0  0  0  0  0  0  0  0  0  0  0
   -9.8745   -9.1283   10.1765 C   0  0  0  0  0  0  0  0  0  0  0  0
   -9.7293   -8.1009    9.2050 C   0  0  0  0  0  0  0  0  0  0  0  0
  -10.0493   -6.7568    9.5414 C   0  0  0  0  0  0  0  0  0  0  0  0
  -10.5114   -6.4413   10.8478 C   0  0  0  0  0  0  0  0  0  0  0  0
  -10.6431   -7.4750   11.8271 C   0  0  0  0  0  0  0  0  0  0  0  0
  -10.3276   -8.8054   11.4959 C   0  0  0  0  0  0  0  0  0  0  0  0
  1  6  1  0  0  0  0
  2  4  1  0  0  0  0
  3  7  1  0  0  0  0
  4  5  1  0  0  0  0
  6  2  1  0  0  0  0
  7  8  1  0  0  0  0
  8  9  1  0  0  0  0
  9 10  1  0  0  0  0
 10 11  1  0  0  0  0
 10 12  1  0  0  0  0
 11 13  1  0  0  0  0
 13 15  1  0  0  0  0
 14 12  1  0  0  0  0
 15 14  1  0  0  0  0
 16 18  2  0  0  0  0
 16 22  1  0  0  0  0
 17 23  1  0  0  0  0
 17 29  1  0  0  0  0
 18 19  1  0  0  0  0
 18 26  1  0  0  0  0
 19 20  2  0  0  0  0
 20  3  1  0  0  0  0
 20 21  1  0  0  0  0
 21  5  1  0  0  0  0
 21 22  2  0  0  0  0
 23 24  2  0  0  0  0
 24 30  1  0  0  0  0
 25 26  2  0  0  0  0
 25 30  1  0  0  0  0
 26 27  1  0  0  0  0
 27 28  2  0  0  0  0
 28 29  1  0  0  0  0
 29 30  2  0  0  0  0
M  END
>  <CHROM.1>
-70.29856485,48.39824276,79.55455048,135.60388041,-71.21907444,-94.82018769
-175.76146420,-69.68989397,17.10004615,-77.84311288,-132.95713988,-9.75959230
-7.24808009,7.34863187,0.66607576,1.12526764,-0.95997917

>  <Name>
1uts_lig

>  <RI>
0

>  <Rbt.Current_Directory>
/home/itssahil/PROJECTS/Mol_Feturizer/New_Systems/rnas/1uts

>  <Rbt.Executable>
rbdock ($Id: //depot/dev/client3/rdock/2013.1/src/exe/rbdock.cxx#4 $)

>  <Rbt.Library>
libRbt.so (2013.1, Build901 2013/11/27)

>  <Rbt.Parameter_File>
/export/apps/rDock/src/rDock_2013.1_src/data/scripts/dock_solv.prm

>  <Rbt.Receptor>
prm/blind_docking_20.prm

>  <SCORE>
-17.6749

>  <SCORE.INTER>
-20.2942

>  <SCORE.INTER.CONST>
1

>  <SCORE.INTER.POLAR>
-2.04056

>  <SCORE.INTER.ROT>
10

>  <SCORE.INTER.SOLV>
7.80016

>  <SCORE.INTER.VDW>
-19.5943

>  <SCORE.INTER.norm>
-0.676472

>  <SCORE.INTRA>
0.407439

>  <SCORE.INTRA.DIHEDRAL>
-3.66009

>  <SCORE.INTRA.DIHEDRAL.0>
18.0451

>  <SCORE.INTRA.POLAR>
-0.511209

>  <SCORE.INTRA.POLAR.0>
-0.196815

>  <SCORE.INTRA.REPUL>
0

>  <SCORE.INTRA.REPUL.0>
0

>  <SCORE.INTRA.SOLV>
0.622842

>  <SCORE.INTRA.SOLV.lig_0>
-14.7906

>  <SCORE.INTRA.VDW>
3.66417

>  <SCORE.INTRA.VDW.0>
-0.411701

>  <SCORE.INTRA.norm>
0.0135813

>  <SCORE.RESTR>
2.21182

>  <SCORE.RESTR.CAVITY>
2.21182

>  <SCORE.RESTR.norm>
0.0737272

>  <SCORE.SYSTEM>
0

>  <SCORE.SYSTEM.CONST>
0

>  <SCORE.SYSTEM.DIHEDRAL>
0

>  <SCORE.SYSTEM.SOLV>
0

>  <SCORE.SYSTEM.norm>
0

>  <SCORE.heavy>
30

>  <SCORE.norm>
-0.589164

>  <RMSD>
18.891

$$$$
1uts_lig
 OpenBabel11021811413D
libRbt.so/2013.1/901 2013/11/27
 30 33  0  0  0  0  0  0  0  0999 V2000
  -10.7155   -8.9794   12.8760 N   0  0  0  0  0  0  0  0  0  0  0  0
   -9.2784   -7.5901   11.4471 C   0  0  0  0  0  0  0  0  0  0  0  0
  -10.2251   -9.2119    8.1939 C   0  0  0  0  0  0  0  0  0  0  0  0
   -8.8430   -7.5039    9.9814 C   0  0  0  0  0  0  0  0  0  0  0  0
   -7.8202   -8.4789    9.7303 O   0  0  0  0  0  0  0  0  0  0  0  0
  -10.6055   -8.3450   11.5430 C   0  0  0  0  0  0  0  0  0  0  0  0
  -11.2819   -8.7906    7.2464 N   0  0  0  0  0  0  0  0  0  0  0  0
  -11.9542   -7.5669    7.7577 C   0  0  0  0  0  0  0  0  0  0  0  0
  -10.9533   -6.4088    7.8081 C   0  0  0  0  0  0  0  0  0  0  0  0
  -11.6476   -5.1764    8.2441 N   0  0  0  0  0  0  0  0  0  0  0  0
  -10.6683   -4.0531    8.2996 C   0  0  0  0  0  0  0  0  0  0  0  0
  -12.2578   -5.4011    9.5850 C   0  0  0  0  0  0  0  0  0  0  0  0
  -11.3851   -2.7720    8.7559 C   0  0  0  0  0  0  0  0  0  0  0  0
  -12.9727   -4.1177   10.0446 C   0  0  0  0  0  0  0  0  0  0  0  0
  -11.9946   -2.9957   10.0975 N   0  0  0  0  0  0  0  0  0  0  0  0
   -6.2880   -8.8426    6.3023 C   0  0  0  0  0  0  0  0  0  0  0  0
   -6.8160   -9.9855   -0.0065 N   0  0  0  0  0  0  0  0  0  0  0  0
   -7.4156   -9.2145    5.5318 C   0  0  0  0  0  0  0  0  0  0  0  0
   -8.6883   -9.3328    6.1512 C   0  0  0  0  0  0  0  0  0  0  0  0
   -8.8342   -9.0758    7.5420 C   0  0  0  0  0  0  0  0  0  0  0  0
   -7.6928   -8.7168    8.3203 C   0  0  0  0  0  0  0  0  0  0  0  0
   -6.4219   -8.5969    7.6943 C   0  0  0  0  0  0  0  0  0  0  0  0
   -7.1397   -8.6678   -0.4026 C   0  0  0  0  0  0  0  0  0  0  0  0
   -7.4581   -7.8673    0.7178 C   0  0  0  0  0  0  0  0  0  0  0  0
   -7.4949   -8.4309    3.2168 C   0  0  0  0  0  0  0  0  0  0  0  0
   -7.2638   -9.4678    4.1613 C   0  0  0  0  0  0  0  0  0  0  0  0
   -6.8719  -10.7595    3.7141 C   0  0  0  0  0  0  0  0  0  0  0  0
   -6.7094  -11.0124    2.3251 C   0  0  0  0  0  0  0  0  0  0  0  0
   -6.9291   -9.9635    1.3783 C   0  0  0  0  0  0  0  0  0  0  0  0
   -7.3175   -8.6850    1.8189 C   0  0  0  0  0  0  0  0  0  0  0  0
  1  6  1  0  0  0  0
  2  4  1  0  0  0  0
  3  7  1  0  0  0  0
  4  5  1  0  0  0  0
  6  2  1  0  0  0  0
  7  8  1  0  0  0  0
  8  9  1  0  0  0  0
  9 10  1  0  0  0  0
 10 11  1  0  0  0  0
 10 12  1  0  0  0  0
 11 13  1  0  0  0  0
 13 15  1  0  0  0  0
 14 12  1  0  0  0  0
 15 14  1  0  0  0  0
 16 18  2  0  0  0  0
 16 22  1  0  0  0  0
 17 23  1  0  0  0  0
 17 29  1  0  0  0  0
 18 19  1  0  0  0  0
 18 26  1  0  0  0  0
 19 20  2  0  0  0  0
 20  3  1  0  0  0  0
 20 21  1  0  0  0  0
 21  5  1  0  0  0  0
 21 22  2  0  0  0  0
 23 24  2  0  0  0  0
 24 30  1  0  0  0  0
 25 26  2  0  0  0  0
 25 30  1  0  0  0  0
 26 27  1  0  0  0  0
 27 28  2  0  0  0  0
 28 29  1  0  0  0  0
 29 30  2  0  0  0  0
M  END
>  <CHROM.1>
136.69453806,-101.88062224,-114.30512254,161.86578735,153.56723344,64.15661541
176.79480572,179.67168654,-94.01547305,-34.68241158,-53.62338359,-9.17964944
-7.79503866,6.84850976,-2.37467645,0.94999691,-1.27803664

>  <Name>
1uts_lig

>  <RI>
0

>  <Rbt.Current_Directory>
/home/itssahil/PROJECTS/Mol_Feturizer/New_Systems/rnas/1uts

>  <Rbt.Executable>
rbdock ($Id: //depot/dev/client3/rdock/2013.1/src/exe/rbdock.cxx#4 $)

>  <Rbt.Library>
libRbt.so (2013.1, Build901 2013/11/27)

>  <Rbt.Parameter_File>
/export/apps/rDock/src/rDock_2013.1_src/data/scripts/dock_solv.prm

>  <Rbt.Receptor>
prm/blind_docking_20.prm

>  <SCORE>
-6.3211

>  <SCORE.INTER>
-16.2268

>  <SCORE.INTER.CONST>
1

>  <SCORE.INTER.POLAR>
-1.14891

>  <SCORE.INTER.ROT>
10

>  <SCORE.INTER.SOLV>
7.01323

>  <SCORE.INTER.VDW>
-19.5925

>  <SCORE.INTER.norm>
-0.540892

>  <SCORE.INTRA>
7.97365

>  <SCORE.INTRA.DIHEDRAL>
5.26259

>  <SCORE.INTRA.DIHEDRAL.0>
18.0451

>  <SCORE.INTRA.POLAR>
0.196815

>  <SCORE.INTRA.POLAR.0>
-0.196815

>  <SCORE.INTRA.REPUL>
0

>  <SCORE.INTRA.REPUL.0>
0

>  <SCORE.INTRA.SOLV>
-0.4137

>  <SCORE.INTRA.SOLV.lig_0>
-14.7906

>  <SCORE.INTRA.VDW>
4.88003

>  <SCORE.INTRA.VDW.0>
-0.411701

>  <SCORE.INTRA.norm>
0.265788

>  <SCORE.RESTR>
1.93203

>  <SCORE.RESTR.CAVITY>
1.93203

>  <SCORE.RESTR.norm>
0.064401

>  <SCORE.SYSTEM>
0

>  <SCORE.SYSTEM.CONST>
0

>  <SCORE.SYSTEM.DIHEDRAL>
0

>  <SCORE.SYSTEM.SOLV>
0

>  <SCORE.SYSTEM.norm>
0

>  <SCORE.heavy>
30

>  <SCORE.norm>
-0.210703

>  <RMSD>
18.894

$$$$
1uts_lig
 OpenBabel11021811413D
libRbt.so/2013.1/901 2013/11/27
 30 33  0  0  0  0  0  0  0  0999 V2000
   -5.8644  -13.5762    3.9230 N   0  0  0  0  0  0  0  0  0  0  0  0
   -5.3314  -11.4601    5.0523 C   0  0  0  0  0  0  0  0  0  0  0  0
   -9.5051   -9.5127    4.5335 C   0  0  0  0  0  0  0  0  0  0  0  0
   -5.2538   -9.9417    4.8689 C   0  0  0  0  0  0  0  0  0  0  0  0
   -6.5600   -9.4317    4.5630 O   0  0  0  0  0  0  0  0  0  0  0  0
   -5.8634  -12.1037    3.7705 C   0  0  0  0  0  0  0  0  0  0  0  0
   -8.9279   -8.8455    3.3445 N   0  0  0  0  0  0  0  0  0  0  0  0
   -8.6133   -7.4288    3.6685 C   0  0  0  0  0  0  0  0  0  0  0  0
   -9.9103   -6.6209    3.7716 C   0  0  0  0  0  0  0  0  0  0  0  0
  -10.1502   -6.2525    5.1850 N   0  0  0  0  0  0  0  0  0  0  0  0
  -11.5903   -5.9107    5.3671 C   0  0  0  0  0  0  0  0  0  0  0  0
   -9.2901   -5.0901    5.5455 C   0  0  0  0  0  0  0  0  0  0  0  0
  -11.8425   -5.5238    6.8334 C   0  0  0  0  0  0  0  0  0  0  0  0
   -9.5445   -4.6994    7.0125 C   0  0  0  0  0  0  0  0  0  0  0  0
  -10.9834   -4.3604    7.1942 N   0  0  0  0  0  0  0  0  0  0  0  0
   -7.2502   -8.4725    8.1456 C   0  0  0  0  0  0  0  0  0  0  0  0
  -11.2974   -7.3793   13.0143 N   0  0  0  0  0  0  0  0  0  0  0  0
   -8.6653   -8.4824    8.1684 C   0  0  0  0  0  0  0  0  0  0  0  0
   -9.3899   -8.8200    6.9943 C   0  0  0  0  0  0  0  0  0  0  0  0
   -8.6982   -9.1510    5.7968 C   0  0  0  0  0  0  0  0  0  0  0  0
   -7.2714   -9.1244    5.7716 C   0  0  0  0  0  0  0  0  0  0  0  0
   -6.5514   -8.7888    6.9508 C   0  0  0  0  0  0  0  0  0  0  0  0
  -11.1865   -8.6733   13.5721 C   0  0  0  0  0  0  0  0  0  0  0  0
  -10.5325   -9.5535   12.6804 C   0  0  0  0  0  0  0  0  0  0  0  0
   -9.5508   -9.1445   10.3495 C   0  0  0  0  0  0  0  0  0  0  0  0
   -9.3403   -8.1536    9.3524 C   0  0  0  0  0  0  0  0  0  0  0  0
   -9.8093   -6.8274    9.5609 C   0  0  0  0  0  0  0  0  0  0  0  0
  -10.4852   -6.4930   10.7654 C   0  0  0  0  0  0  0  0  0  0  0  0
  -10.6831   -7.4887   11.7726 C   0  0  0  0  0  0  0  0  0  0  0  0
  -10.2204   -8.8015   11.5678 C   0  0  0  0  0  0  0  0  0  0  0  0
  1  6  1  0  0  0  0
  2  4  1  0  0  0  0
  3  7  1  0  0  0  0
  4  5  1  0  0  0  0
  6  2  1  0  0  0  0
  7  8  1  0  0  0  0
  8  9  1  0  0  0  0
  9 10  1  0  0  0  0
 10 11  1  0  0  0  0
 10 12  1  0  0  0  0
 11 13  1  0  0  0  0
 13 15  1  0  0  0  0
 14 12  1  0  0  0  0
 15 14  1  0  0  0  0
 16 18  2  0  0  0  0
 16 22  1  0  0  0  0
 17 23  1  0  0  0  0
 17 29  1  0  0  0  0
 18 19  1  0  0  0  0
 18 26  1  0  0  0  0
 19 20  2  0  0  0  0
 20  3  1  0  0  0  0
 20 21  1  0  0  0  0
 21  5  1  0  0  0  0
 21 22  2  0  0  0  0
 23 24  2  0  0  0  0
 24 30  1  0  0  0  0
 25 26  2  0  0  0  0
 25 30  1  0  0  0  0
 26 27  1  0  0  0  0
 27 28  2  0  0  0  0
 28 29  1  0  0  0  0
 29 30  2  0  0  0  0
M  END
>  <CHROM.1>
-67.73635729,59.10535876,-44.45577641,88.11798816,176.79051533,-72.91252160
109.64744479,-160.11735925,-83.71155919,136.26367698,-153.46759256,-8.97841776
-8.21536512,7.16279039,-0.68803213,-0.93654417,1.93957309

>  <Name>
1uts_lig

>  <RI>
0

>  <Rbt.Current_Directory>
/home/itssahil/PROJECTS/Mol_Feturizer/New_Systems/rnas/1uts

>  <Rbt.Executable>
rbdock ($Id: //depot/dev/client3/rdock/2013.1/src/exe/rbdock.cxx#4 $)

>  <Rbt.Library>
libRbt.so (2013.1, Build901 2013/11/27)

>  <Rbt.Parameter_File>
/export/apps/rDock/src/rDock_2013.1_src/data/scripts/dock_solv.prm

>  <Rbt.Receptor>
prm/blind_docking_20.prm

>  <SCORE>
-21.8907

>  <SCORE.INTER>
-26.186

>  <SCORE.INTER.CONST>
1

>  <SCORE.INTER.POLAR>
-1.52367

>  <SCORE.INTER.ROT>
10

>  <SCORE.INTER.SOLV>
8.50427

>  <SCORE.INTER.VDW>
-25.4798

>  <SCORE.INTER.norm>
-0.872866

>  <SCORE.INTRA>
2.74863

>  <SCORE.INTRA.DIHEDRAL>
-1.2792

>  <SCORE.INTRA.DIHEDRAL.0>
18.0451

>  <SCORE.INTRA.POLAR>
-0.107135

>  <SCORE.INTRA.POLAR.0>
-0.196815

>  <SCORE.INTRA.REPUL>
0

>  <SCORE.INTRA.REPUL.0>
0

>  <SCORE.INTRA.SOLV>
0.235758

>  <SCORE.INTRA.SOLV.lig_0>
-14.7906

>  <SCORE.INTRA.VDW>
3.63462

>  <SCORE.INTRA.VDW.0>
-0.411701

>  <SCORE.INTRA.norm>
0.0916212

>  <SCORE.RESTR>
1.54666

>  <SCORE.RESTR.CAVITY>
1.54666

>  <SCORE.RESTR.norm>
0.0515552

>  <SCORE.SYSTEM>
0

>  <SCORE.SYSTEM.CONST>
0

>  <SCORE.SYSTEM.DIHEDRAL>
0

>  <SCORE.SYSTEM.SOLV>
0

>  <SCORE.SYSTEM.norm>
0

>  <SCORE.heavy>
30

>  <SCORE.norm>
-0.72969

>  <RMSD>
18.920

$$$$
1uts_lig
 OpenBabel11021811413D
libRbt.so/2013.1/901 2013/11/27
 30 33  0  0  0  0  0  0  0  0999 V2000
  -10.5448   -9.0788   13.0467 N   0  0  0  0  0  0  0  0  0  0  0  0
  -10.9013   -7.7497   11.0111 C   0  0  0  0  0  0  0  0  0  0  0  0
   -9.3031   -5.5933    9.2035 C   0  0  0  0  0  0  0  0  0  0  0  0
  -11.6125   -6.5193   10.4406 C   0  0  0  0  0  0  0  0  0  0  0  0
  -11.9977   -6.7790    9.0826 O   0  0  0  0  0  0  0  0  0  0  0  0
  -11.2181   -7.8781   12.5022 C   0  0  0  0  0  0  0  0  0  0  0  0
   -9.0954   -4.4531    8.2821 N   0  0  0  0  0  0  0  0  0  0  0  0
   -9.9845   -4.5968    7.0990 C   0  0  0  0  0  0  0  0  0  0  0  0
   -9.1413   -4.6600    5.8221 C   0  0  0  0  0  0  0  0  0  0  0  0
   -9.5078   -5.8679    5.0491 N   0  0  0  0  0  0  0  0  0  0  0  0
   -8.2662   -6.5782    4.6275 C   0  0  0  0  0  0  0  0  0  0  0  0
  -10.3083   -5.4679    3.8574 C   0  0  0  0  0  0  0  0  0  0  0  0
   -8.6429   -7.8315    3.8208 C   0  0  0  0  0  0  0  0  0  0  0  0
  -10.6829   -6.7217    3.0468 C   0  0  0  0  0  0  0  0  0  0  0  0
   -9.4425   -7.4319    2.6282 N   0  0  0  0  0  0  0  0  0  0  0  0
  -10.1300   -9.2440    6.9223 C   0  0  0  0  0  0  0  0  0  0  0  0
   -4.8860  -11.3729    3.9490 N   0  0  0  0  0  0  0  0  0  0  0  0
   -8.8250   -8.6963    6.9402 C   0  0  0  0  0  0  0  0  0  0  0  0
   -8.5640   -7.5129    7.6810 C   0  0  0  0  0  0  0  0  0  0  0  0
   -9.6088   -6.8782    8.4074 C   0  0  0  0  0  0  0  0  0  0  0  0
  -10.9276   -7.4230    8.3747 C   0  0  0  0  0  0  0  0  0  0  0  0
  -11.1822   -8.6096    7.6339 C   0  0  0  0  0  0  0  0  0  0  0  0
   -5.6964  -12.4456    3.5128 C   0  0  0  0  0  0  0  0  0  0  0  0
   -7.0057  -12.3336    4.0330 C   0  0  0  0  0  0  0  0  0  0  0  0
   -8.0579  -10.5468    5.5378 C   0  0  0  0  0  0  0  0  0  0  0  0
   -7.8004   -9.3269    6.2204 C   0  0  0  0  0  0  0  0  0  0  0  0
   -6.5044   -8.7441    6.1662 C   0  0  0  0  0  0  0  0  0  0  0  0
   -5.4691   -9.3795    5.4286 C   0  0  0  0  0  0  0  0  0  0  0  0
   -5.7350  -10.5995    4.7314 C   0  0  0  0  0  0  0  0  0  0  0  0
   -7.0164  -11.1778    4.7844 C   0  0  0  0  0  0  0  0  0  0  0  0
  1  6  1  0  0  0  0
  2  4  1  0  0  0  0
  3  7  1  0  0  0  0
  4  5  1  0  0  0  0
  6  2  1  0  0  0  0
  7  8  1  0  0  0  0
  8  9  1  0  0  0  0
  9 10  1  0  0  0  0
 10 11  1  0  0  0  0
 10 12  1  0  0  0  0
 11 13  1  0  0  0  0
 13 15  1  0  0  0  0
 14 12  1  0  0  0  0
 15 14  1  0  0  0  0
 16 18  2  0  0  0  0
 16 22  1  0  0  0  0
 17 23  1  0  0  0  0
 17 29  1  0  0  0  0
 18 19  1  0  0  0  0
 18 26  1  0  0  0  0
 19 20  2  0  0  0  0
 20  3  1  0  0  0  0
 20 21  1  0  0  0  0
 21  5  1  0  0  0  0
 21 22  2  0  0  0  0
 23 24  2  0  0  0  0
 24 30  1  0  0  0  0
 25 26  2  0  0  0  0
 25 30  1  0  0  0  0
 26 27  1  0  0  0  0
 27 28  2  0  0  0  0
 28 29  1  0  0  0  0
 29 30  2  0  0  0  0
M  END
>  <CHROM.1>
-148.24929434,-146.40258282,34.54000897,-43.81892533,179.21213204,-120.54981104
126.66591192,-132.72680314,-3.36587283,72.34521971,-50.46559232,-8.99172845
-7.97143204,6.71521194,-2.66514304,0.97856142,-1.04793012

>  <Name>
1uts_lig

>  <RI>
0

>  <Rbt.Current_Directory>
/home/itssahil/PROJECTS/Mol_Feturizer/New_Systems/rnas/1uts

>  <Rbt.Executable>
rbdock ($Id: //depot/dev/client3/rdock/2013.1/src/exe/rbdock.cxx#4 $)

>  <Rbt.Library>
libRbt.so (2013.1, Build901 2013/11/27)

>  <Rbt.Parameter_File>
/export/apps/rDock/src/rDock_2013.1_src/data/scripts/dock_solv.prm

>  <Rbt.Receptor>
prm/blind_docking_20.prm

>  <SCORE>
-9.25063

>  <SCORE.INTER>
-22.4484

>  <SCORE.INTER.CONST>
1

>  <SCORE.INTER.POLAR>
-1.60515

>  <SCORE.INTER.ROT>
10

>  <SCORE.INTER.SOLV>
9.6975

>  <SCORE.INTER.VDW>
-23.1143

>  <SCORE.INTER.norm>
-0.748281

>  <SCORE.INTRA>
11.9148

>  <SCORE.INTRA.DIHEDRAL>
5.5364

>  <SCORE.INTRA.DIHEDRAL.0>
18.0451

>  <SCORE.INTRA.POLAR>
0.196815

>  <SCORE.INTRA.POLAR.0>
-0.196815

>  <SCORE.INTRA.REPUL>
0

>  <SCORE.INTRA.REPUL.0>
0

>  <SCORE.INTRA.SOLV>
-0.0760932

>  <SCORE.INTRA.SOLV.lig_0>
-14.7906

>  <SCORE.INTRA.VDW>
8.51543

>  <SCORE.INTRA.VDW.0>
-0.411701

>  <SCORE.INTRA.norm>
0.397158

>  <SCORE.RESTR>
1.28303

>  <SCORE.RESTR.CAVITY>
1.28303

>  <SCORE.RESTR.norm>
0.0427678

>  <SCORE.SYSTEM>
0

>  <SCORE.SYSTEM.CONST>
0

>  <SCORE.SYSTEM.DIHEDRAL>
0

>  <SCORE.SYSTEM.SOLV>
0

>  <SCORE.SYSTEM.norm>
0

>  <SCORE.heavy>
30

>  <SCORE.norm>
-0.308354

>  <RMSD>
18.934

$$$$
1uts_lig
 OpenBabel11021811413D
libRbt.so/2013.1/901 2013/11/27
 30 33  0  0  0  0  0  0  0  0999 V2000
  -10.5025   -9.1622   13.3060 N   0  0  0  0  0  0  0  0  0  0  0  0
  -10.8598   -7.1135   11.9974 C   0  0  0  0  0  0  0  0  0  0  0  0
   -9.5413   -4.8762    7.5497 C   0  0  0  0  0  0  0  0  0  0  0  0
  -10.8748   -6.5322   10.5807 C   0  0  0  0  0  0  0  0  0  0  0  0
   -9.5496   -6.1118   10.2244 O   0  0  0  0  0  0  0  0  0  0  0  0
  -10.5019   -8.5996   11.9367 C   0  0  0  0  0  0  0  0  0  0  0  0
  -10.5369   -4.8560    6.4540 N   0  0  0  0  0  0  0  0  0  0  0  0
  -11.7402   -5.6313    6.8564 C   0  0  0  0  0  0  0  0  0  0  0  0
  -12.9768   -4.7289    6.8108 C   0  0  0  0  0  0  0  0  0  0  0  0
  -13.9003   -5.1031    7.9053 N   0  0  0  0  0  0  0  0  0  0  0  0
  -13.3134   -4.6824    9.2101 C   0  0  0  0  0  0  0  0  0  0  0  0
  -14.1196   -6.5770    7.8847 C   0  0  0  0  0  0  0  0  0  0  0  0
  -14.2683   -5.0730   10.3499 C   0  0  0  0  0  0  0  0  0  0  0  0
  -15.0726   -6.9697    9.0279 C   0  0  0  0  0  0  0  0  0  0  0  0
  -14.4869   -6.5472   10.3305 N   0  0  0  0  0  0  0  0  0  0  0  0
   -8.1339   -8.9739    8.2154 C   0  0  0  0  0  0  0  0  0  0  0  0
   -6.1533  -11.6427    2.7457 N   0  0  0  0  0  0  0  0  0  0  0  0
   -8.1303   -8.4232    6.9115 C   0  0  0  0  0  0  0  0  0  0  0  0
   -8.5881   -7.0950    6.7027 C   0  0  0  0  0  0  0  0  0  0  0  0
   -9.0472   -6.3154    7.7997 C   0  0  0  0  0  0  0  0  0  0  0  0
   -9.0653   -6.8782    9.1112 C   0  0  0  0  0  0  0  0  0  0  0  0
   -8.6029   -8.2073    9.3147 C   0  0  0  0  0  0  0  0  0  0  0  0
   -5.0151  -12.1308    3.4269 C   0  0  0  0  0  0  0  0  0  0  0  0
   -4.9304  -11.5821    4.7267 C   0  0  0  0  0  0  0  0  0  0  0  0
   -6.4779   -9.9511    5.9552 C   0  0  0  0  0  0  0  0  0  0  0  0
   -7.6776   -9.1984    5.8346 C   0  0  0  0  0  0  0  0  0  0  0  0
   -8.4209   -9.2386    4.6229 C   0  0  0  0  0  0  0  0  0  0  0  0
   -7.9658  -10.0320    3.5353 C   0  0  0  0  0  0  0  0  0  0  0  0
   -6.7658  -10.7991    3.6646 C   0  0  0  0  0  0  0  0  0  0  0  0
   -6.0288  -10.7601    4.8624 C   0  0  0  0  0  0  0  0  0  0  0  0
  1  6  1  0  0  0  0
  2  4  1  0  0  0  0
  3  7  1  0  0  0  0
  4  5  1  0  0  0  0
  6  2  1  0  0  0  0
  7  8  1  0  0  0  0
  8  9  1  0  0  0  0
  9 10  1  0  0  0  0
 10 11  1  0  0  0  0
 10 12  1  0  0  0  0
 11 13  1  0  0  0  0
 13 15  1  0  0  0  0
 14 12  1  0  0  0  0
 15 14  1  0  0  0  0
 16 18  2  0  0  0  0
 16 22  1  0  0  0  0
 17 23  1  0  0  0  0
 17 29  1  0  0  0  0
 18 19  1  0  0  0  0
 18 26  1  0  0  0  0
 19 20  2  0  0  0  0
 20  3  1  0  0  0  0
 20 21  1  0  0  0  0
 21  5  1  0  0  0  0
 21 22  2  0  0  0  0
 23 24  2  0  0  0  0
 24 30  1  0  0  0  0
 25 26  2  0  0  0  0
 25 30  1  0  0  0  0
 26 27  1  0  0  0  0
 27 28  2  0  0  0  0
 28 29  1  0  0  0  0
 29 30  2  0  0  0  0
M  END
>  <CHROM.1>
-64.51411648,-86.62464620,63.88773920,116.59722971,-179.39078761,121.20535780
-144.70089510,71.15943520,-45.41068540,50.75552277,102.81065468,-9.91647528
-7.71433966,7.71678961,-2.61617415,0.67641762,-1.45342179

>  <Name>
1uts_lig

>  <RI>
0

>  <Rbt.Current_Directory>
/home/itssahil/PROJECTS/Mol_Feturizer/New_Systems/rnas/1uts

>  <Rbt.Executable>
rbdock ($Id: //depot/dev/client3/rdock/2013.1/src/exe/rbdock.cxx#4 $)

>  <Rbt.Library>
libRbt.so (2013.1, Build901 2013/11/27)

>  <Rbt.Parameter_File>
/export/apps/rDock/src/rDock_2013.1_src/data/scripts/dock_solv.prm

>  <Rbt.Receptor>
prm/blind_docking_20.prm

>  <SCORE>
-19.7078

>  <SCORE.INTER>
-28.6455

>  <SCORE.INTER.CONST>
1

>  <SCORE.INTER.POLAR>
-1.92351

>  <SCORE.INTER.ROT>
10

>  <SCORE.INTER.SOLV>
7.61919

>  <SCORE.INTER.VDW>
-25.4917

>  <SCORE.INTER.norm>
-0.954851

>  <SCORE.INTRA>
6.67042

>  <SCORE.INTRA.DIHEDRAL>
6.55733

>  <SCORE.INTRA.DIHEDRAL.0>
18.0451

>  <SCORE.INTRA.POLAR>
0.196815

>  <SCORE.INTRA.POLAR.0>
-0.196815

>  <SCORE.INTRA.REPUL>
0

>  <SCORE.INTRA.REPUL.0>
0

>  <SCORE.INTRA.SOLV>
-0.248674

>  <SCORE.INTRA.SOLV.lig_0>
-14.7906

>  <SCORE.INTRA.VDW>
2.84692

>  <SCORE.INTRA.VDW.0>
-0.411701

>  <SCORE.INTRA.norm>
0.222347

>  <SCORE.RESTR>
2.26733

>  <SCORE.RESTR.CAVITY>
2.26733

>  <SCORE.RESTR.norm>
0.0755777

>  <SCORE.SYSTEM>
0

>  <SCORE.SYSTEM.CONST>
0

>  <SCORE.SYSTEM.DIHEDRAL>
0

>  <SCORE.SYSTEM.SOLV>
0

>  <SCORE.SYSTEM.norm>
0

>  <SCORE.heavy>
30

>  <SCORE.norm>
-0.656926

>  <RMSD>
18.935

$$$$
1uts_lig
 OpenBabel11021811413D
libRbt.so/2013.1/901 2013/11/27
 30 33  0  0  0  0  0  0  0  0999 V2000
   -6.8268   -9.4466    0.5924 N   0  0  0  0  0  0  0  0  0  0  0  0
   -7.9667   -8.5544    2.5778 C   0  0  0  0  0  0  0  0  0  0  0  0
   -9.5627   -5.7675    4.7759 C   0  0  0  0  0  0  0  0  0  0  0  0
   -6.6616   -8.0098    3.1653 C   0  0  0  0  0  0  0  0  0  0  0  0
   -6.9461   -6.8540    3.9671 O   0  0  0  0  0  0  0  0  0  0  0  0
   -7.8914   -8.5254    1.0502 C   0  0  0  0  0  0  0  0  0  0  0  0
  -11.0150   -6.0156    4.9219 N   0  0  0  0  0  0  0  0  0  0  0  0
  -11.6790   -4.7997    5.4621 C   0  0  0  0  0  0  0  0  0  0  0  0
  -11.3309   -4.6349    6.9443 C   0  0  0  0  0  0  0  0  0  0  0  0
  -12.1988   -5.5181    7.7553 N   0  0  0  0  0  0  0  0  0  0  0  0
  -13.6101   -5.0465    7.6573 C   0  0  0  0  0  0  0  0  0  0  0  0
  -11.7401   -5.4951    9.1731 C   0  0  0  0  0  0  0  0  0  0  0  0
  -14.5141   -5.9592    8.5016 C   0  0  0  0  0  0  0  0  0  0  0  0
  -12.6468   -6.4059   10.0202 C   0  0  0  0  0  0  0  0  0  0  0  0
  -14.0565   -5.9357    9.9199 N   0  0  0  0  0  0  0  0  0  0  0  0
   -7.3101   -8.5299    7.3272 C   0  0  0  0  0  0  0  0  0  0  0  0
  -10.6709   -9.2992   12.8111 N   0  0  0  0  0  0  0  0  0  0  0  0
   -8.5558   -8.0163    7.7606 C   0  0  0  0  0  0  0  0  0  0  0  0
   -9.2803   -7.1212    6.9291 C   0  0  0  0  0  0  0  0  0  0  0  0
   -8.7599   -6.7418    5.6614 C   0  0  0  0  0  0  0  0  0  0  0  0
   -7.4959   -7.2480    5.2334 C   0  0  0  0  0  0  0  0  0  0  0  0
   -6.7765   -8.1461    6.0686 C   0  0  0  0  0  0  0  0  0  0  0  0
  -10.9451   -7.9764   13.2270 C   0  0  0  0  0  0  0  0  0  0  0  0
  -10.5529   -7.0447   12.2393 C   0  0  0  0  0  0  0  0  0  0  0  0
   -9.5083   -7.4019    9.9273 C   0  0  0  0  0  0  0  0  0  0  0  0
   -9.0618   -8.3939    9.0123 C   0  0  0  0  0  0  0  0  0  0  0  0
   -9.1359   -9.7692    9.3661 C   0  0  0  0  0  0  0  0  0  0  0  0
   -9.6577  -10.1511   10.6316 C   0  0  0  0  0  0  0  0  0  0  0  0
  -10.1189   -9.1515   11.5443 C   0  0  0  0  0  0  0  0  0  0  0  0
  -10.0458   -7.7903   11.1964 C   0  0  0  0  0  0  0  0  0  0  0  0
  1  6  1  0  0  0  0
  2  4  1  0  0  0  0
  3  7  1  0  0  0  0
  4  5  1  0  0  0  0
  6  2  1  0  0  0  0
  7  8  1  0  0  0  0
  8  9  1  0  0  0  0
  9 10  1  0  0  0  0
 10 11  1  0  0  0  0
 10 12  1  0  0  0  0
 11 13  1  0  0  0  0
 13 15  1  0  0  0  0
 14 12  1  0  0  0  0
 15 14  1  0  0  0  0
 16 18  2  0  0  0  0
 16 22  1  0  0  0  0
 17 23  1  0  0  0  0
 17 29  1  0  0  0  0
 18 19  1  0  0  0  0
 18 26  1  0  0  0  0
 19 20  2  0  0  0  0
 20  3  1  0  0  0  0
 20 21  1  0  0  0  0
 21  5  1  0  0  0  0
 21 22  2  0  0  0  0
 23 24  2  0  0  0  0
 24 30  1  0  0  0  0
 25 26  2  0  0  0  0
 25 30  1  0  0  0  0
 26 27  1  0  0  0  0
 27 28  2  0  0  0  0
 28 29  1  0  0  0  0
 29 30  2  0  0  0  0
M  END
>  <CHROM.1>
-179.34613996,119.76968470,118.65209963,76.87205014,64.39477194,-72.97499873
-80.95281586,-66.52530493,129.58540147,-35.85857721,-124.05118467,-9.92253670
-7.29807237,7.39570769,-0.98461720,-0.63517422,1.86965745

>  <Name>
1uts_lig

>  <RI>
0

>  <Rbt.Current_Directory>
/home/itssahil/PROJECTS/Mol_Feturizer/New_Systems/rnas/1uts

>  <Rbt.Executable>
rbdock ($Id: //depot/dev/client3/rdock/2013.1/src/exe/rbdock.cxx#4 $)

>  <Rbt.Library>
libRbt.so (2013.1, Build901 2013/11/27)

>  <Rbt.Parameter_File>
/export/apps/rDock/src/rDock_2013.1_src/data/scripts/dock_solv.prm

>  <Rbt.Receptor>
prm/blind_docking_20.prm

>  <SCORE>
-18.2863

>  <SCORE.INTER>
-22.5592

>  <SCORE.INTER.CONST>
1

>  <SCORE.INTER.POLAR>
-1.89092

>  <SCORE.INTER.ROT>
10

>  <SCORE.INTER.SOLV>
9.61487

>  <SCORE.INTER.VDW>
-22.208

>  <SCORE.INTER.norm>
-0.751975

>  <SCORE.INTRA>
3.1804

>  <SCORE.INTRA.DIHEDRAL>
1.36855

>  <SCORE.INTRA.DIHEDRAL.0>
18.0451

>  <SCORE.INTRA.POLAR>
0.196815

>  <SCORE.INTRA.POLAR.0>
-0.196815

>  <SCORE.INTRA.REPUL>
0

>  <SCORE.INTRA.REPUL.0>
0

>  <SCORE.INTRA.SOLV>
-0.0684455

>  <SCORE.INTRA.SOLV.lig_0>
-14.7906

>  <SCORE.INTRA.VDW>
1.86118

>  <SCORE.INTRA.VDW.0>
-0.411701

>  <SCORE.INTRA.norm>
0.106013

>  <SCORE.RESTR>
1.09254

>  <SCORE.RESTR.CAVITY>
1.09254

>  <SCORE.RESTR.norm>
0.036418

>  <SCORE.SYSTEM>
0

>  <SCORE.SYSTEM.CONST>
0

>  <SCORE.SYSTEM.DIHEDRAL>
0

>  <SCORE.SYSTEM.SOLV>
0

>  <SCORE.SYSTEM.norm>
0

>  <SCORE.heavy>
30

>  <SCORE.norm>
-0.609543

>  <RMSD>
18.948

$$$$
1uts_lig
 OpenBabel11021811413D
libRbt.so/2013.1/901 2013/11/27
 30 33  0  0  0  0  0  0  0  0999 V2000
   -5.9556  -14.0285    4.1846 N   0  0  0  0  0  0  0  0  0  0  0  0
   -6.9143  -11.8988    4.9479 C   0  0  0  0  0  0  0  0  0  0  0  0
   -6.9239   -9.2302    7.4062 C   0  0  0  0  0  0  0  0  0  0  0  0
   -8.2054  -11.0757    4.9213 C   0  0  0  0  0  0  0  0  0  0  0  0
   -8.8320  -11.1309    6.2113 O   0  0  0  0  0  0  0  0  0  0  0  0
   -6.9975  -13.0147    3.9048 C   0  0  0  0  0  0  0  0  0  0  0  0
   -6.0602   -8.4067    6.5299 N   0  0  0  0  0  0  0  0  0  0  0  0
   -6.1676   -8.8867    5.1267 C   0  0  0  0  0  0  0  0  0  0  0  0
   -6.2951   -7.6907    4.1786 C   0  0  0  0  0  0  0  0  0  0  0  0
   -7.3973   -7.9361    3.2215 N   0  0  0  0  0  0  0  0  0  0  0  0
   -8.6581   -8.1884    3.9768 C   0  0  0  0  0  0  0  0  0  0  0  0
   -7.0585   -9.1098    2.3680 C   0  0  0  0  0  0  0  0  0  0  0  0
   -9.8045   -8.4476    2.9859 C   0  0  0  0  0  0  0  0  0  0  0  0
   -8.2074   -9.3726    1.3779 C   0  0  0  0  0  0  0  0  0  0  0  0
   -9.4668   -9.6221    2.1329 N   0  0  0  0  0  0  0  0  0  0  0  0
  -11.1385   -8.2006    6.7810 C   0  0  0  0  0  0  0  0  0  0  0  0
  -11.9734   -2.1422    8.9373 N   0  0  0  0  0  0  0  0  0  0  0  0
  -10.2580   -7.2650    7.3749 C   0  0  0  0  0  0  0  0  0  0  0  0
   -8.8936   -7.6053    7.5750 C   0  0  0  0  0  0  0  0  0  0  0  0
   -8.4085   -8.8816    7.1779 C   0  0  0  0  0  0  0  0  0  0  0  0
   -9.3018   -9.8294    6.5941 C   0  0  0  0  0  0  0  0  0  0  0  0
  -10.6659   -9.4821    6.3934 C   0  0  0  0  0  0  0  0  0  0  0  0
  -10.6970   -1.6142    9.2371 C   0  0  0  0  0  0  0  0  0  0  0  0
   -9.6887   -2.5832    9.0324 C   0  0  0  0  0  0  0  0  0  0  0  0
   -9.8419   -5.0053    8.2115 C   0  0  0  0  0  0  0  0  0  0  0  0
  -10.7438   -6.0092    7.7652 C   0  0  0  0  0  0  0  0  0  0  0  0
  -12.1381   -5.7351    7.7089 C   0  0  0  0  0  0  0  0  0  0  0  0
  -12.6283   -4.4586    8.0960 C   0  0  0  0  0  0  0  0  0  0  0  0
  -11.7170   -3.4462    8.5313 C   0  0  0  0  0  0  0  0  0  0  0  0
  -10.3373   -3.7157    8.5883 C   0  0  0  0  0  0  0  0  0  0  0  0
  1  6  1  0  0  0  0
  2  4  1  0  0  0  0
  3  7  1  0  0  0  0
  4  5  1  0  0  0  0
  6  2  1  0  0  0  0
  7  8  1  0  0  0  0
  8  9  1  0  0  0  0
  9 10  1  0  0  0  0
 10 11  1  0  0  0  0
 10 12  1  0  0  0  0
 11 13  1  0  0  0  0
 13 15  1  0  0  0  0
 14 12  1  0  0  0  0
 15 14  1  0  0  0  0
 16 18  2  0  0  0  0
 16 22  1  0  0  0  0
 17 23  1  0  0  0  0
 17 29  1  0  0  0  0
 18 19  1  0  0  0  0
 18 26  1  0  0  0  0
 19 20  2  0  0  0  0
 20  3  1  0  0  0  0
 20 21  1  0  0  0  0
 21  5  1  0  0  0  0
 21 22  2  0  0  0  0
 23 24  2  0  0  0  0
 24 30  1  0  0  0  0
 25 26  2  0  0  0  0
 25 30  1  0  0  0  0
 26 27  1  0  0  0  0
 27 28  2  0  0  0  0
 28 29  1  0  0  0  0
 29 30  2  0  0  0  0
M  END
>  <CHROM.1>
165.04970584,120.41767093,-73.30377305,136.65060282,-163.80249175,136.08964899
-132.97368456,56.96931266,-172.37815279,-68.03930860,-82.38711891,-8.94908707
-7.94006538,5.93626973,-0.37882625,-1.12222696,1.71017115

>  <Name>
1uts_lig

>  <RI>
0

>  <Rbt.Current_Directory>
/home/itssahil/PROJECTS/Mol_Feturizer/New_Systems/rnas/1uts

>  <Rbt.Executable>
rbdock ($Id: //depot/dev/client3/rdock/2013.1/src/exe/rbdock.cxx#4 $)

>  <Rbt.Library>
libRbt.so (2013.1, Build901 2013/11/27)

>  <Rbt.Parameter_File>
/export/apps/rDock/src/rDock_2013.1_src/data/scripts/dock_solv.prm

>  <Rbt.Receptor>
prm/blind_docking_20.prm

>  <SCORE>
-16.6838

>  <SCORE.INTER>
-26.5431

>  <SCORE.INTER.CONST>
1

>  <SCORE.INTER.POLAR>
-2.89521

>  <SCORE.INTER.ROT>
10

>  <SCORE.INTER.SOLV>
7.66042

>  <SCORE.INTER.VDW>
-20.8648

>  <SCORE.INTER.norm>
-0.88477

>  <SCORE.INTRA>
8.48841

>  <SCORE.INTRA.DIHEDRAL>
8.71954

>  <SCORE.INTRA.DIHEDRAL.0>
18.0451

>  <SCORE.INTRA.POLAR>
0.196815

>  <SCORE.INTRA.POLAR.0>
-0.196815

>  <SCORE.INTRA.REPUL>
0

>  <SCORE.INTRA.REPUL.0>
0

>  <SCORE.INTRA.SOLV>
0.0564712

>  <SCORE.INTRA.SOLV.lig_0>
-14.7906

>  <SCORE.INTRA.VDW>
3.43123

>  <SCORE.INTRA.VDW.0>
-0.411701

>  <SCORE.INTRA.norm>
0.282947

>  <SCORE.RESTR>
1.37084

>  <SCORE.RESTR.CAVITY>
1.37084

>  <SCORE.RESTR.norm>
0.0456947

>  <SCORE.SYSTEM>
0

>  <SCORE.SYSTEM.CONST>
0

>  <SCORE.SYSTEM.DIHEDRAL>
0

>  <SCORE.SYSTEM.SOLV>
0

>  <SCORE.SYSTEM.norm>
0

>  <SCORE.heavy>
30

>  <SCORE.norm>
-0.556128

>  <RMSD>
18.957

$$$$
1uts_lig
 OpenBabel11021811413D
libRbt.so/2013.1/901 2013/11/27
 30 33  0  0  0  0  0  0  0  0999 V2000
   -8.6066   -9.7925    0.1793 N   0  0  0  0  0  0  0  0  0  0  0  0
   -7.8543   -8.5393    2.1544 C   0  0  0  0  0  0  0  0  0  0  0  0
   -9.7678   -6.5014    4.3202 C   0  0  0  0  0  0  0  0  0  0  0  0
   -6.6379   -8.2079    3.0237 C   0  0  0  0  0  0  0  0  0  0  0  0
   -6.9165   -7.0376    3.8063 O   0  0  0  0  0  0  0  0  0  0  0  0
   -7.4489   -9.5338    1.0649 C   0  0  0  0  0  0  0  0  0  0  0  0
   -9.9278   -5.0590    4.6133 N   0  0  0  0  0  0  0  0  0  0  0  0
  -11.1225   -4.8524    5.4741 C   0  0  0  0  0  0  0  0  0  0  0  0
  -10.7048   -4.8490    6.9476 C   0  0  0  0  0  0  0  0  0  0  0  0
  -11.8667   -5.2114    7.7898 N   0  0  0  0  0  0  0  0  0  0  0  0
  -12.9066   -4.1484    7.6779 C   0  0  0  0  0  0  0  0  0  0  0  0
  -11.4242   -5.3591    9.2052 C   0  0  0  0  0  0  0  0  0  0  0  0
  -14.1136   -4.5196    8.5545 C   0  0  0  0  0  0  0  0  0  0  0  0
  -12.6328   -5.7271   10.0846 C   0  0  0  0  0  0  0  0  0  0  0  0
  -13.6719   -4.6662    9.9704 N   0  0  0  0  0  0  0  0  0  0  0  0
   -7.1834   -8.3777    7.3227 C   0  0  0  0  0  0  0  0  0  0  0  0
  -10.6941   -9.2767   12.6820 N   0  0  0  0  0  0  0  0  0  0  0  0
   -8.5440   -8.1208    7.6156 C   0  0  0  0  0  0  0  0  0  0  0  0
   -9.3758   -7.5121    6.6383 C   0  0  0  0  0  0  0  0  0  0  0  0
   -8.8469   -7.1628    5.3654 C   0  0  0  0  0  0  0  0  0  0  0  0
   -7.4706   -7.4079    5.0780 C   0  0  0  0  0  0  0  0  0  0  0  0
   -6.6434   -8.0203    6.0590 C   0  0  0  0  0  0  0  0  0  0  0  0
  -10.9885   -7.9455   13.0549 C   0  0  0  0  0  0  0  0  0  0  0  0
  -10.5976   -7.0392   12.0433 C   0  0  0  0  0  0  0  0  0  0  0  0
   -9.5256   -7.4531    9.7534 C   0  0  0  0  0  0  0  0  0  0  0  0
   -9.0581   -8.4666    8.8733 C   0  0  0  0  0  0  0  0  0  0  0  0
   -9.1191   -9.8315    9.2677 C   0  0  0  0  0  0  0  0  0  0  0  0
   -9.6489  -10.1814   10.5391 C   0  0  0  0  0  0  0  0  0  0  0  0
  -10.1313   -9.1605   11.4167 C   0  0  0  0  0  0  0  0  0  0  0  0
  -10.0712   -7.8096   11.0284 C   0  0  0  0  0  0  0  0  0  0  0  0
  1  6  1  0  0  0  0
  2  4  1  0  0  0  0
  3  7  1  0  0  0  0
  4  5  1  0  0  0  0
  6  2  1  0  0  0  0
  7  8  1  0  0  0  0
  8  9  1  0  0  0  0
  9 10  1  0  0  0  0
 10 11  1  0  0  0  0
 10 12  1  0  0  0  0
 11 13  1  0  0  0  0
 13 15  1  0  0  0  0
 14 12  1  0  0  0  0
 15 14  1  0  0  0  0
 16 18  2  0  0  0  0
 16 22  1  0  0  0  0
 17 23  1  0  0  0  0
 17 29  1  0  0  0  0
 18 19  1  0  0  0  0
 18 26  1  0  0  0  0
 19 20  2  0  0  0  0
 20  3  1  0  0  0  0
 20 21  1  0  0  0  0
 21  5  1  0  0  0  0
 21 22  2  0  0  0  0
 23 24  2  0  0  0  0
 24 30  1  0  0  0  0
 25 26  2  0  0  0  0
 25 30  1  0  0  0  0
 26 27  1  0  0  0  0
 27 28  2  0  0  0  0
 28 29  1  0  0  0  0
 29 30  2  0  0  0  0
M  END
>  <CHROM.1>
-172.33619422,165.04877428,-91.92659195,91.62781827,-176.77710431,93.18594485
-156.46053755,-65.38713668,115.73475634,79.51134656,-108.83878399,-9.82550978
-7.21138820,7.26708640,-0.94906381,-0.80741382,1.89377040

>  <Name>
1uts_lig

>  <RI>
0

>  <Rbt.Current_Directory>
/home/itssahil/PROJECTS/Mol_Feturizer/New_Systems/rnas/1uts

>  <Rbt.Executable>
rbdock ($Id: //depot/dev/client3/rdock/2013.1/src/exe/rbdock.cxx#4 $)

>  <Rbt.Library>
libRbt.so (2013.1, Build901 2013/11/27)

>  <Rbt.Parameter_File>
/export/apps/rDock/src/rDock_2013.1_src/data/scripts/dock_solv.prm

>  <Rbt.Receptor>
prm/blind_docking_20.prm

>  <SCORE>
-13.4122

>  <SCORE.INTER>
-16.8446

>  <SCORE.INTER.CONST>
1

>  <SCORE.INTER.POLAR>
-1.14891

>  <SCORE.INTER.ROT>
10

>  <SCORE.INTER.SOLV>
9.25811

>  <SCORE.INTER.VDW>
-20.7528

>  <SCORE.INTER.norm>
-0.561488

>  <SCORE.INTRA>
1.94194

>  <SCORE.INTRA.DIHEDRAL>
1.81301

>  <SCORE.INTRA.DIHEDRAL.0>
18.0451

>  <SCORE.INTRA.POLAR>
0.196815

>  <SCORE.INTRA.POLAR.0>
-0.196815

>  <SCORE.INTRA.REPUL>
0

>  <SCORE.INTRA.REPUL.0>
0

>  <SCORE.INTRA.SOLV>
-0.416025

>  <SCORE.INTRA.SOLV.lig_0>
-14.7906

>  <SCORE.INTRA.VDW>
0.57427

>  <SCORE.INTRA.VDW.0>
-0.411701

>  <SCORE.INTRA.norm>
0.0647312

>  <SCORE.RESTR>
1.49051

>  <SCORE.RESTR.CAVITY>
1.49051

>  <SCORE.RESTR.norm>
0.0496835

>  <SCORE.SYSTEM>
0

>  <SCORE.SYSTEM.CONST>
0

>  <SCORE.SYSTEM.DIHEDRAL>
0

>  <SCORE.SYSTEM.SOLV>
0

>  <SCORE.SYSTEM.norm>
0

>  <SCORE.heavy>
30

>  <SCORE.norm>
-0.447074

>  <RMSD>
18.959

$$$$
1uts_lig
 OpenBabel11021811413D
libRbt.so/2013.1/901 2013/11/27
 30 33  0  0  0  0  0  0  0  0999 V2000
  -10.9253   -8.9509   12.9218 N   0  0  0  0  0  0  0  0  0  0  0  0
  -10.3309   -7.8122   10.8272 C   0  0  0  0  0  0  0  0  0  0  0  0
  -10.6457   -8.8531    7.9708 C   0  0  0  0  0  0  0  0  0  0  0  0
   -9.1146   -7.4591    9.9663 C   0  0  0  0  0  0  0  0  0  0  0  0
   -8.3174   -8.6351    9.7632 O   0  0  0  0  0  0  0  0  0  0  0  0
   -9.8707   -8.1645   12.2430 C   0  0  0  0  0  0  0  0  0  0  0  0
  -11.3605   -7.7678    7.2615 N   0  0  0  0  0  0  0  0  0  0  0  0
  -11.5420   -6.6078    8.1739 C   0  0  0  0  0  0  0  0  0  0  0  0
  -12.1759   -5.4419    7.4094 C   0  0  0  0  0  0  0  0  0  0  0  0
  -12.1278   -4.2209    8.2448 N   0  0  0  0  0  0  0  0  0  0  0  0
  -13.0367   -3.1910    7.6643 C   0  0  0  0  0  0  0  0  0  0  0  0
  -10.7283   -3.7110    8.2943 C   0  0  0  0  0  0  0  0  0  0  0  0
  -12.9864   -1.9198    8.5272 C   0  0  0  0  0  0  0  0  0  0  0  0
  -10.6774   -2.4359    9.1552 C   0  0  0  0  0  0  0  0  0  0  0  0
  -11.5872   -1.4086    8.5761 N   0  0  0  0  0  0  0  0  0  0  0  0
   -6.5353   -9.1765    6.4826 C   0  0  0  0  0  0  0  0  0  0  0  0
   -6.6660  -10.0031    0.0941 N   0  0  0  0  0  0  0  0  0  0  0  0
   -7.6271   -9.3049    5.5910 C   0  0  0  0  0  0  0  0  0  0  0  0
   -8.9565   -9.1995    6.0800 C   0  0  0  0  0  0  0  0  0  0  0  0
   -9.1942   -8.9623    7.4617 C   0  0  0  0  0  0  0  0  0  0  0  0
   -8.0922   -8.8495    8.3616 C   0  0  0  0  0  0  0  0  0  0  0  0
   -6.7635   -8.9527    7.8660 C   0  0  0  0  0  0  0  0  0  0  0  0
   -6.9836   -8.6858   -0.3077 C   0  0  0  0  0  0  0  0  0  0  0  0
   -7.3844   -7.9029    0.7987 C   0  0  0  0  0  0  0  0  0  0  0  0
   -7.5712   -8.4958    3.2841 C   0  0  0  0  0  0  0  0  0  0  0  0
   -7.3849   -9.5401    4.2303 C   0  0  0  0  0  0  0  0  0  0  0  0
   -6.9461  -10.8209    3.7952 C   0  0  0  0  0  0  0  0  0  0  0  0
   -6.6921  -11.0553    2.4168 C   0  0  0  0  0  0  0  0  0  0  0  0
   -6.8670   -9.9987    1.4692 C   0  0  0  0  0  0  0  0  0  0  0  0
   -7.3017   -8.7311    1.8976 C   0  0  0  0  0  0  0  0  0  0  0  0
  1  6  1  0  0  0  0
  2  4  1  0  0  0  0
  3  7  1  0  0  0  0
  4  5  1  0  0  0  0
  6  2  1  0  0  0  0
  7  8  1  0  0  0  0
  8  9  1  0  0  0  0
  9 10  1  0  0  0  0
 10 11  1  0  0  0  0
 10 12  1  0  0  0  0
 11 13  1  0  0  0  0
 13 15  1  0  0  0  0
 14 12  1  0  0  0  0
 15 14  1  0  0  0  0
 16 18  2  0  0  0  0
 16 22  1  0  0  0  0
 17 23  1  0  0  0  0
 17 29  1  0  0  0  0
 18 19  1  0  0  0  0
 18 26  1  0  0  0  0
 19 20  2  0  0  0  0
 20  3  1  0  0  0  0
 20 21  1  0  0  0  0
 21  5  1  0  0  0  0
 21 22  2  0  0  0  0
 23 24  2  0  0  0  0
 24 30  1  0  0  0  0
 25 26  2  0  0  0  0
 25 30  1  0  0  0  0
 26 27  1  0  0  0  0
 27 28  2  0  0  0  0
 28 29  1  0  0  0  0
 29 30  2  0  0  0  0
M  END
>  <CHROM.1>
-150.68904822,67.81166906,-106.82023450,126.30031439,-159.94355511,175.30946386
-169.75808759,-165.68133859,-105.94828576,-57.98939840,-56.11622384,-9.32802369
-7.44415081,6.71712082,-2.60046180,1.02409599,-1.17018932

>  <Name>
1uts_lig

>  <RI>
0

>  <Rbt.Current_Directory>
/home/itssahil/PROJECTS/Mol_Feturizer/New_Systems/rnas/1uts

>  <Rbt.Executable>
rbdock ($Id: //depot/dev/client3/rdock/2013.1/src/exe/rbdock.cxx#4 $)

>  <Rbt.Library>
libRbt.so (2013.1, Build901 2013/11/27)

>  <Rbt.Parameter_File>
/export/apps/rDock/src/rDock_2013.1_src/data/scripts/dock_solv.prm

>  <Rbt.Receptor>
prm/blind_docking_20.prm

>  <SCORE>
-18.0768

>  <SCORE.INTER>
-24.952

>  <SCORE.INTER.CONST>
1

>  <SCORE.INTER.POLAR>
-2.26763

>  <SCORE.INTER.ROT>
10

>  <SCORE.INTER.SOLV>
8.29502

>  <SCORE.INTER.VDW>
-22.1075

>  <SCORE.INTER.norm>
-0.831732

>  <SCORE.INTRA>
5.80419

>  <SCORE.INTRA.DIHEDRAL>
4.8541

>  <SCORE.INTRA.DIHEDRAL.0>
18.0451

>  <SCORE.INTRA.POLAR>
0.196815

>  <SCORE.INTRA.POLAR.0>
-0.196815

>  <SCORE.INTRA.REPUL>
0

>  <SCORE.INTRA.REPUL.0>
0

>  <SCORE.INTRA.SOLV>
-0.429269

>  <SCORE.INTRA.SOLV.lig_0>
-14.7906

>  <SCORE.INTRA.VDW>
2.9226

>  <SCORE.INTRA.VDW.0>
-0.411701

>  <SCORE.INTRA.norm>
0.193473

>  <SCORE.RESTR>
1.07094

>  <SCORE.RESTR.CAVITY>
1.07094

>  <SCORE.RESTR.norm>
0.0356981

>  <SCORE.SYSTEM>
0

>  <SCORE.SYSTEM.CONST>
0

>  <SCORE.SYSTEM.DIHEDRAL>
0

>  <SCORE.SYSTEM.SOLV>
0

>  <SCORE.SYSTEM.norm>
0

>  <SCORE.heavy>
30

>  <SCORE.norm>
-0.602561

>  <RMSD>
19.007

$$$$
1uts_lig
 OpenBabel11021811413D
libRbt.so/2013.1/901 2013/11/27
 30 33  0  0  0  0  0  0  0  0999 V2000
  -11.9115   -4.5697    3.1884 N   0  0  0  0  0  0  0  0  0  0  0  0
  -13.1235   -6.0166    4.7616 C   0  0  0  0  0  0  0  0  0  0  0  0
   -9.6310   -4.4409    7.1619 C   0  0  0  0  0  0  0  0  0  0  0  0
  -13.4063   -6.1903    6.2566 C   0  0  0  0  0  0  0  0  0  0  0  0
  -12.2740   -5.7344    7.0115 O   0  0  0  0  0  0  0  0  0  0  0  0
  -12.5933   -4.6053    4.5019 C   0  0  0  0  0  0  0  0  0  0  0  0
   -8.9854   -4.3649    8.4922 N   0  0  0  0  0  0  0  0  0  0  0  0
   -9.5758   -3.2450    9.2722 C   0  0  0  0  0  0  0  0  0  0  0  0
  -10.2946   -3.7965   10.5070 C   0  0  0  0  0  0  0  0  0  0  0  0
  -11.5254   -4.5027   10.0860 N   0  0  0  0  0  0  0  0  0  0  0  0
  -12.5498   -4.3920   11.1642 C   0  0  0  0  0  0  0  0  0  0  0  0
  -11.2066   -5.9332    9.8163 C   0  0  0  0  0  0  0  0  0  0  0  0
  -13.8285   -5.1278   10.7320 C   0  0  0  0  0  0  0  0  0  0  0  0
  -12.4871   -6.6719    9.3871 C   0  0  0  0  0  0  0  0  0  0  0  0
  -13.5105   -6.5589   10.4634 N   0  0  0  0  0  0  0  0  0  0  0  0
  -10.0990   -8.6241    5.9387 C   0  0  0  0  0  0  0  0  0  0  0  0
   -4.4656  -11.2729    4.4834 N   0  0  0  0  0  0  0  0  0  0  0  0
   -8.8129   -8.0346    5.9807 C   0  0  0  0  0  0  0  0  0  0  0  0
   -8.6684   -6.6785    6.3776 C   0  0  0  0  0  0  0  0  0  0  0  0
   -9.8112   -5.9119    6.7358 C   0  0  0  0  0  0  0  0  0  0  0  0
  -11.1087   -6.5035    6.6770 C   0  0  0  0  0  0  0  0  0  0  0  0
  -11.2470   -7.8623    6.2820 C   0  0  0  0  0  0  0  0  0  0  0  0
   -5.1893  -12.4773    4.3302 C   0  0  0  0  0  0  0  0  0  0  0  0
   -6.5563  -12.2876    4.6348 C   0  0  0  0  0  0  0  0  0  0  0  0
   -7.8317  -10.1838    5.3501 C   0  0  0  0  0  0  0  0  0  0  0  0
   -7.6910   -8.7963    5.6247 C   0  0  0  0  0  0  0  0  0  0  0  0
   -6.4123   -8.1812    5.5310 C   0  0  0  0  0  0  0  0  0  0  0  0
   -5.2774   -8.9524    5.1610 C   0  0  0  0  0  0  0  0  0  0  0  0
   -5.4246  -10.3452    4.8718 C   0  0  0  0  0  0  0  0  0  0  0  0
   -6.6888  -10.9555    4.9646 C   0  0  0  0  0  0  0  0  0  0  0  0
  1  6  1  0  0  0  0
  2  4  1  0  0  0  0
  3  7  1  0  0  0  0
  4  5  1  0  0  0  0
  6  2  1  0  0  0  0
  7  8  1  0  0  0  0
  8  9  1  0  0  0  0
  9 10  1  0  0  0  0
 10 11  1  0  0  0  0
 10 12  1  0  0  0  0
 11 13  1  0  0  0  0
 13 15  1  0  0  0  0
 14 12  1  0  0  0  0
 15 14  1  0  0  0  0
 16 18  2  0  0  0  0
 16 22  1  0  0  0  0
 17 23  1  0  0  0  0
 17 29  1  0  0  0  0
 18 19  1  0  0  0  0
 18 26  1  0  0  0  0
 19 20  2  0  0  0  0
 20  3  1  0  0  0  0
 20 21  1  0  0  0  0
 21  5  1  0  0  0  0
 21 22  2  0  0  0  0
 23 24  2  0  0  0  0
 24 30  1  0  0  0  0
 25 26  2  0  0  0  0
 25 30  1  0  0  0  0
 26 27  1  0  0  0  0
 27 28  2  0  0  0  0
 28 29  1  0  0  0  0
 29 30  2  0  0  0  0
M  END
>  <CHROM.1>
178.67056120,-48.58699781,-142.44535833,-60.77221813,161.48514528,115.92211021
-70.86534928,-149.72475400,-6.07850994,-70.92575472,149.20199905,-9.85466462
-6.98873635,6.91563595,2.47953471,-0.58774381,1.25613904

>  <Name>
1uts_lig

>  <RI>
0

>  <Rbt.Current_Directory>
/home/itssahil/PROJECTS/Mol_Feturizer/New_Systems/rnas/1uts

>  <Rbt.Executable>
rbdock ($Id: //depot/dev/client3/rdock/2013.1/src/exe/rbdock.cxx#4 $)

>  <Rbt.Library>
libRbt.so (2013.1, Build901 2013/11/27)

>  <Rbt.Parameter_File>
/export/apps/rDock/src/rDock_2013.1_src/data/scripts/dock_solv.prm

>  <Rbt.Receptor>
prm/blind_docking_100.prm

>  <SCORE>
-10.4037

>  <SCORE.INTER>
-18.3234

>  <SCORE.INTER.CONST>
1

>  <SCORE.INTER.POLAR>
-1.43868

>  <SCORE.INTER.ROT>
10

>  <SCORE.INTER.SOLV>
9.39764

>  <SCORE.INTER.VDW>
-20.8192

>  <SCORE.INTER.norm>
-0.610781

>  <SCORE.INTRA>
5.32826

>  <SCORE.INTRA.DIHEDRAL>
-6.08567

>  <SCORE.INTRA.DIHEDRAL.0>
18.0451

>  <SCORE.INTRA.POLAR>
0.196815

>  <SCORE.INTRA.POLAR.0>
-0.196815

>  <SCORE.INTRA.REPUL>
0

>  <SCORE.INTRA.REPUL.0>
0

>  <SCORE.INTRA.SOLV>
0.390899

>  <SCORE.INTRA.SOLV.lig_0>
-14.7906

>  <SCORE.INTRA.VDW>
7.50647

>  <SCORE.INTRA.VDW.0>
-0.411701

>  <SCORE.INTRA.norm>
0.177609

>  <SCORE.RESTR>
2.59146

>  <SCORE.RESTR.CAVITY>
2.59146

>  <SCORE.RESTR.norm>
0.086382

>  <SCORE.SYSTEM>
0

>  <SCORE.SYSTEM.CONST>
0

>  <SCORE.SYSTEM.DIHEDRAL>
0

>  <SCORE.SYSTEM.SOLV>
0

>  <SCORE.SYSTEM.norm>
0

>  <SCORE.heavy>
30

>  <SCORE.norm>
-0.34679

>  <RMSD>
19.027

$$$$
1uts_lig
 OpenBabel11021811413D
libRbt.so/2013.1/901 2013/11/27
 30 33  0  0  0  0  0  0  0  0999 V2000
  -10.8344   -9.0694   13.1642 N   0  0  0  0  0  0  0  0  0  0  0  0
   -9.9089   -9.3119   10.9011 C   0  0  0  0  0  0  0  0  0  0  0  0
  -11.3393   -8.1123    7.3893 C   0  0  0  0  0  0  0  0  0  0  0  0
   -8.7116   -8.5963   10.2689 C   0  0  0  0  0  0  0  0  0  0  0  0
   -9.1830   -7.6143    9.3344 O   0  0  0  0  0  0  0  0  0  0  0  0
  -10.6105   -8.3684   11.8797 C   0  0  0  0  0  0  0  0  0  0  0  0
  -11.5095   -7.2048    8.5466 N   0  0  0  0  0  0  0  0  0  0  0  0
  -12.5663   -6.2028    8.2463 C   0  0  0  0  0  0  0  0  0  0  0  0
  -12.1444   -5.3489    7.0469 C   0  0  0  0  0  0  0  0  0  0  0  0
  -11.8322   -3.9764    7.5048 N   0  0  0  0  0  0  0  0  0  0  0  0
  -10.7162   -4.0289    8.4926 C   0  0  0  0  0  0  0  0  0  0  0  0
  -13.0466   -3.3738    8.1237 C   0  0  0  0  0  0  0  0  0  0  0  0
  -10.3916   -2.6053    8.9734 C   0  0  0  0  0  0  0  0  0  0  0  0
  -12.7217   -1.9495    8.6090 C   0  0  0  0  0  0  0  0  0  0  0  0
  -11.6054   -2.0025    9.5936 N   0  0  0  0  0  0  0  0  0  0  0  0
   -7.1083   -8.5007    6.3110 C   0  0  0  0  0  0  0  0  0  0  0  0
   -6.6634  -10.1009    0.0846 N   0  0  0  0  0  0  0  0  0  0  0  0
   -8.1144   -8.7664    5.3516 C   0  0  0  0  0  0  0  0  0  0  0  0
   -9.4835   -8.6391    5.7077 C   0  0  0  0  0  0  0  0  0  0  0  0
   -9.8467   -8.2425    7.0241 C   0  0  0  0  0  0  0  0  0  0  0  0
   -8.8309   -7.9909    7.9946 C   0  0  0  0  0  0  0  0  0  0  0  0
   -7.4620   -8.1170    7.6314 C   0  0  0  0  0  0  0  0  0  0  0  0
   -6.9940   -8.8608   -0.5075 C   0  0  0  0  0  0  0  0  0  0  0  0
   -7.5163   -7.9655    0.4534 C   0  0  0  0  0  0  0  0  0  0  0  0
   -7.8921   -8.2508    2.9716 C   0  0  0  0  0  0  0  0  0  0  0  0
   -7.7487   -9.1584    4.0561 C   0  0  0  0  0  0  0  0  0  0  0  0
   -7.2274  -10.4612    3.8259 C   0  0  0  0  0  0  0  0  0  0  0  0
   -6.8484  -10.8541    2.5139 C   0  0  0  0  0  0  0  0  0  0  0  0
   -6.9808   -9.9340    1.4272 C   0  0  0  0  0  0  0  0  0  0  0  0
   -7.4969   -8.6448    1.6529 C   0  0  0  0  0  0  0  0  0  0  0  0
  1  6  1  0  0  0  0
  2  4  1  0  0  0  0
  3  7  1  0  0  0  0
  4  5  1  0  0  0  0
  6  2  1  0  0  0  0
  7  8  1  0  0  0  0
  8  9  1  0  0  0  0
  9 10  1  0  0  0  0
 10 11  1  0  0  0  0
 10 12  1  0  0  0  0
 11 13  1  0  0  0  0
 13 15  1  0  0  0  0
 14 12  1  0  0  0  0
 15 14  1  0  0  0  0
 16 18  2  0  0  0  0
 16 22  1  0  0  0  0
 17 23  1  0  0  0  0
 17 29  1  0  0  0  0
 18 19  1  0  0  0  0
 18 26  1  0  0  0  0
 19 20  2  0  0  0  0
 20  3  1  0  0  0  0
 20 21  1  0  0  0  0
 21  5  1  0  0  0  0
 21 22  2  0  0  0  0
 23 24  2  0  0  0  0
 24 30  1  0  0  0  0
 25 26  2  0  0  0  0
 25 30  1  0  0  0  0
 26 27  1  0  0  0  0
 27 28  2  0  0  0  0
 28 29  1  0  0  0  0
 29 30  2  0  0  0  0
M  END
>  <CHROM.1>
-157.91457277,-72.52050509,131.05173745,-112.54060807,-131.29061352,-61.99841059
-109.75149344,60.22630688,-107.16221232,-157.20697532,118.02296996,-9.54462481
-7.32259570,6.67686430,-2.58421087,1.04899500,-1.10083769

>  <Name>
1uts_lig

>  <RI>
0

>  <Rbt.Current_Directory>
/home/itssahil/PROJECTS/Mol_Feturizer/New_Systems/rnas/1uts

>  <Rbt.Executable>
rbdock ($Id: //depot/dev/client3/rdock/2013.1/src/exe/rbdock.cxx#4 $)

>  <Rbt.Library>
libRbt.so (2013.1, Build901 2013/11/27)

>  <Rbt.Parameter_File>
/export/apps/rDock/src/rDock_2013.1_src/data/scripts/dock_solv.prm

>  <Rbt.Receptor>
prm/blind_docking_20.prm

>  <SCORE>
-16.65

>  <SCORE.INTER>
-27.6571

>  <SCORE.INTER.CONST>
1

>  <SCORE.INTER.POLAR>
-2.3986

>  <SCORE.INTER.ROT>
10

>  <SCORE.INTER.SOLV>
6.69098

>  <SCORE.INTER.VDW>
-22.9398

>  <SCORE.INTER.norm>
-0.921905

>  <SCORE.INTRA>
9.77373

>  <SCORE.INTRA.DIHEDRAL>
12.8879

>  <SCORE.INTRA.DIHEDRAL.0>
18.0451

>  <SCORE.INTRA.POLAR>
-0.231014

>  <SCORE.INTRA.POLAR.0>
-0.196815

>  <SCORE.INTRA.REPUL>
0

>  <SCORE.INTRA.REPUL.0>
0

>  <SCORE.INTRA.SOLV>
0.125836

>  <SCORE.INTRA.SOLV.lig_0>
-14.7906

>  <SCORE.INTRA.VDW>
4.05229

>  <SCORE.INTRA.VDW.0>
-0.411701

>  <SCORE.INTRA.norm>
0.325791

>  <SCORE.RESTR>
1.23343

>  <SCORE.RESTR.CAVITY>
1.23343

>  <SCORE.RESTR.norm>
0.0411143

>  <SCORE.SYSTEM>
0

>  <SCORE.SYSTEM.CONST>
0

>  <SCORE.SYSTEM.DIHEDRAL>
0

>  <SCORE.SYSTEM.SOLV>
0

>  <SCORE.SYSTEM.norm>
0

>  <SCORE.heavy>
30

>  <SCORE.norm>
-0.555

>  <RMSD>
19.039

$$$$
1uts_lig
 OpenBabel11021811413D
libRbt.so/2013.1/901 2013/11/27
 30 33  0  0  0  0  0  0  0  0999 V2000
  -10.8870   -8.9722   12.9275 N   0  0  0  0  0  0  0  0  0  0  0  0
  -10.5811   -7.8296   10.7739 C   0  0  0  0  0  0  0  0  0  0  0  0
  -10.0078   -5.2673    6.9011 C   0  0  0  0  0  0  0  0  0  0  0  0
   -9.3229   -6.9570   10.8009 C   0  0  0  0  0  0  0  0  0  0  0  0
   -9.2811   -6.1450    9.6182 O   0  0  0  0  0  0  0  0  0  0  0  0
  -10.3291   -9.1152   11.5638 C   0  0  0  0  0  0  0  0  0  0  0  0
  -11.2710   -5.6312    6.2201 N   0  0  0  0  0  0  0  0  0  0  0  0
  -12.2254   -4.4933    6.2934 C   0  0  0  0  0  0  0  0  0  0  0  0
  -12.4543   -4.1029    7.7565 C   0  0  0  0  0  0  0  0  0  0  0  0
  -12.8324   -5.3045    8.5337 N   0  0  0  0  0  0  0  0  0  0  0  0
  -14.1464   -5.8132    8.0455 C   0  0  0  0  0  0  0  0  0  0  0  0
  -12.9156   -4.9520    9.9792 C   0  0  0  0  0  0  0  0  0  0  0  0
  -14.5443   -7.0593    8.8531 C   0  0  0  0  0  0  0  0  0  0  0  0
  -13.3176   -6.1982   10.7886 C   0  0  0  0  0  0  0  0  0  0  0  0
  -14.6290   -6.7071   10.2989 N   0  0  0  0  0  0  0  0  0  0  0  0
   -7.5970   -8.8589    7.6105 C   0  0  0  0  0  0  0  0  0  0  0  0
   -6.0775  -11.7703    2.1259 N   0  0  0  0  0  0  0  0  0  0  0  0
   -7.9397   -8.4812    6.2902 C   0  0  0  0  0  0  0  0  0  0  0  0
   -8.7215   -7.3165    6.0674 C   0  0  0  0  0  0  0  0  0  0  0  0
   -9.1585   -6.5268    7.1662 C   0  0  0  0  0  0  0  0  0  0  0  0
   -8.8256   -6.9185    8.4977 C   0  0  0  0  0  0  0  0  0  0  0  0
   -8.0401   -8.0837    8.7145 C   0  0  0  0  0  0  0  0  0  0  0  0
   -5.1102  -12.4744    2.8784 C   0  0  0  0  0  0  0  0  0  0  0  0
   -5.0756  -12.0137    4.2141 C   0  0  0  0  0  0  0  0  0  0  0  0
   -6.4622  -10.2123    5.3958 C   0  0  0  0  0  0  0  0  0  0  0  0
   -7.5065   -9.2656    5.2119 C   0  0  0  0  0  0  0  0  0  0  0  0
   -8.1152   -9.1206    3.9350 C   0  0  0  0  0  0  0  0  0  0  0  0
   -7.6814   -9.9228    2.8450 C   0  0  0  0  0  0  0  0  0  0  0  0
   -6.6401  -10.8841    3.0366 C   0  0  0  0  0  0  0  0  0  0  0  0
   -6.0363  -11.0285    4.2991 C   0  0  0  0  0  0  0  0  0  0  0  0
  1  6  1  0  0  0  0
  2  4  1  0  0  0  0
  3  7  1  0  0  0  0
  4  5  1  0  0  0  0
  6  2  1  0  0  0  0
  7  8  1  0  0  0  0
  8  9  1  0  0  0  0
  9 10  1  0  0  0  0
 10 11  1  0  0  0  0
 10 12  1  0  0  0  0
 11 13  1  0  0  0  0
 13 15  1  0  0  0  0
 14 12  1  0  0  0  0
 15 14  1  0  0  0  0
 16 18  2  0  0  0  0
 16 22  1  0  0  0  0
 17 23  1  0  0  0  0
 17 29  1  0  0  0  0
 18 19  1  0  0  0  0
 18 26  1  0  0  0  0
 19 20  2  0  0  0  0
 20  3  1  0  0  0  0
 20 21  1  0  0  0  0
 21  5  1  0  0  0  0
 21 22  2  0  0  0  0
 23 24  2  0  0  0  0
 24 30  1  0  0  0  0
 25 26  2  0  0  0  0
 25 30  1  0  0  0  0
 26 27  1  0  0  0  0
 27 28  2  0  0  0  0
 28 29  1  0  0  0  0
 29 30  2  0  0  0  0
M  END
>  <CHROM.1>
50.69008842,152.02664953,165.04950394,-78.56096935,98.23029249,-56.54251758
-52.20052224,-64.87722652,-16.29187819,60.66310749,156.44691477,-9.73848882
-7.84066987,7.39233665,-2.60873286,0.73846718,-1.37990756

>  <Name>
1uts_lig

>  <RI>
0

>  <Rbt.Current_Directory>
/home/itssahil/PROJECTS/Mol_Feturizer/New_Systems/rnas/1uts

>  <Rbt.Executable>
rbdock ($Id: //depot/dev/client3/rdock/2013.1/src/exe/rbdock.cxx#4 $)

>  <Rbt.Library>
libRbt.so (2013.1, Build901 2013/11/27)

>  <Rbt.Parameter_File>
/export/apps/rDock/src/rDock_2013.1_src/data/scripts/dock_solv.prm

>  <Rbt.Receptor>
prm/blind_docking_20.prm

>  <SCORE>
-12.8805

>  <SCORE.INTER>
-18.3651

>  <SCORE.INTER.CONST>
1

>  <SCORE.INTER.POLAR>
-1.57868

>  <SCORE.INTER.ROT>
10

>  <SCORE.INTER.SOLV>
7.59347

>  <SCORE.INTER.VDW>
-19.7789

>  <SCORE.INTER.norm>
-0.612169

>  <SCORE.INTRA>
2.85482

>  <SCORE.INTRA.DIHEDRAL>
-7.15683

>  <SCORE.INTRA.DIHEDRAL.0>
18.0451

>  <SCORE.INTRA.POLAR>
0.196815

>  <SCORE.INTRA.POLAR.0>
-0.196815

>  <SCORE.INTRA.REPUL>
0

>  <SCORE.INTRA.REPUL.0>
0

>  <SCORE.INTRA.SOLV>
0.0768958

>  <SCORE.INTRA.SOLV.lig_0>
-14.7906

>  <SCORE.INTRA.VDW>
5.72562

>  <SCORE.INTRA.VDW.0>
-0.411701

>  <SCORE.INTRA.norm>
0.0951607

>  <SCORE.RESTR>
2.62978

>  <SCORE.RESTR.CAVITY>
2.62978

>  <SCORE.RESTR.norm>
0.0876593

>  <SCORE.SYSTEM>
0

>  <SCORE.SYSTEM.CONST>
0

>  <SCORE.SYSTEM.DIHEDRAL>
0

>  <SCORE.SYSTEM.SOLV>
0

>  <SCORE.SYSTEM.norm>
0

>  <SCORE.heavy>
30

>  <SCORE.norm>
-0.429349

>  <RMSD>
19.043

$$$$
1uts_lig
 OpenBabel11021811413D
libRbt.so/2013.1/901 2013/11/27
 30 33  0  0  0  0  0  0  0  0999 V2000
  -13.0999   -3.3922    9.3078 N   0  0  0  0  0  0  0  0  0  0  0  0
  -13.9461   -5.5691   10.0710 C   0  0  0  0  0  0  0  0  0  0  0  0
   -9.1100   -6.8443    9.8107 C   0  0  0  0  0  0  0  0  0  0  0  0
  -13.1942   -6.3307    8.9756 C   0  0  0  0  0  0  0  0  0  0  0  0
  -12.0417   -6.9691    9.5449 O   0  0  0  0  0  0  0  0  0  0  0  0
  -14.3283   -4.1796    9.5577 C   0  0  0  0  0  0  0  0  0  0  0  0
   -9.6542   -5.4867   10.0406 N   0  0  0  0  0  0  0  0  0  0  0  0
   -9.2786   -4.5982    8.9090 C   0  0  0  0  0  0  0  0  0  0  0  0
  -10.4335   -4.5208    7.9061 C   0  0  0  0  0  0  0  0  0  0  0  0
   -9.9861   -5.0492    6.5978 N   0  0  0  0  0  0  0  0  0  0  0  0
   -8.9308   -4.1550    6.0405 C   0  0  0  0  0  0  0  0  0  0  0  0
  -11.1500   -5.1214    5.6699 C   0  0  0  0  0  0  0  0  0  0  0  0
   -8.4663   -4.6987    4.6796 C   0  0  0  0  0  0  0  0  0  0  0  0
  -10.6853   -5.6622    4.3056 C   0  0  0  0  0  0  0  0  0  0  0  0
   -9.6297   -4.7699    3.7507 N   0  0  0  0  0  0  0  0  0  0  0  0
  -11.0473   -8.7240    6.3570 C   0  0  0  0  0  0  0  0  0  0  0  0
   -6.5020  -11.0671    2.4308 N   0  0  0  0  0  0  0  0  0  0  0  0
   -9.6353   -8.6688    6.4380 C   0  0  0  0  0  0  0  0  0  0  0  0
   -9.0140   -8.0579    7.5597 C   0  0  0  0  0  0  0  0  0  0  0  0
   -9.8058   -7.5042    8.6030 C   0  0  0  0  0  0  0  0  0  0  0  0
  -11.2295   -7.5464    8.5114 C   0  0  0  0  0  0  0  0  0  0  0  0
  -11.8459   -8.1620    7.3877 C   0  0  0  0  0  0  0  0  0  0  0  0
   -6.0255  -12.1491    3.2055 C   0  0  0  0  0  0  0  0  0  0  0  0
   -6.5218  -12.0814    4.5271 C   0  0  0  0  0  0  0  0  0  0  0  0
   -8.0959  -10.3909    5.6355 C   0  0  0  0  0  0  0  0  0  0  0  0
   -8.8613   -9.2156    5.4048 C   0  0  0  0  0  0  0  0  0  0  0  0
   -8.8460   -8.5998    4.1231 C   0  0  0  0  0  0  0  0  0  0  0  0
   -8.0682   -9.1603    3.0740 C   0  0  0  0  0  0  0  0  0  0  0  0
   -7.3102  -10.3506    3.3053 C   0  0  0  0  0  0  0  0  0  0  0  0
   -7.3236  -10.9609    4.5729 C   0  0  0  0  0  0  0  0  0  0  0  0
  1  6  1  0  0  0  0
  2  4  1  0  0  0  0
  3  7  1  0  0  0  0
  4  5  1  0  0  0  0
  6  2  1  0  0  0  0
  7  8  1  0  0  0  0
  8  9  1  0  0  0  0
  9 10  1  0  0  0  0
 10 11  1  0  0  0  0
 10 12  1  0  0  0  0
 11 13  1  0  0  0  0
 13 15  1  0  0  0  0
 14 12  1  0  0  0  0
 15 14  1  0  0  0  0
 16 18  2  0  0  0  0
 16 22  1  0  0  0  0
 17 23  1  0  0  0  0
 17 29  1  0  0  0  0
 18 19  1  0  0  0  0
 18 26  1  0  0  0  0
 19 20  2  0  0  0  0
 20  3  1  0  0  0  0
 20 21  1  0  0  0  0
 21  5  1  0  0  0  0
 21 22  2  0  0  0  0
 23 24  2  0  0  0  0
 24 30  1  0  0  0  0
 25 26  2  0  0  0  0
 25 30  1  0  0  0  0
 26 27  1  0  0  0  0
 27 28  2  0  0  0  0
 28 29  1  0  0  0  0
 29 30  2  0  0  0  0
M  END
>  <CHROM.1>
81.17622904,134.83136642,-67.08753129,-172.68416175,-65.06358527,96.99811352
-118.47860353,-65.54912816,-110.80419069,128.17223625,142.01586595,-9.87093159
-7.18684385,6.60657586,-2.89433512,-0.98541111,2.62690816

>  <Name>
1uts_lig

>  <RI>
0

>  <Rbt.Current_Directory>
/home/itssahil/PROJECTS/Mol_Feturizer/New_Systems/rnas/1uts

>  <Rbt.Executable>
rbdock ($Id: //depot/dev/client3/rdock/2013.1/src/exe/rbdock.cxx#4 $)

>  <Rbt.Library>
libRbt.so (2013.1, Build901 2013/11/27)

>  <Rbt.Parameter_File>
/export/apps/rDock/src/rDock_2013.1_src/data/scripts/dock_solv.prm

>  <Rbt.Receptor>
prm/blind_docking_20.prm

>  <SCORE>
-9.6068

>  <SCORE.INTER>
-10.6274

>  <SCORE.INTER.CONST>
1

>  <SCORE.INTER.POLAR>
-0.572422

>  <SCORE.INTER.ROT>
10

>  <SCORE.INTER.SOLV>
5.8898

>  <SCORE.INTER.VDW>
-17.4068

>  <SCORE.INTER.norm>
-0.354248

>  <SCORE.INTRA>
0.00264517

>  <SCORE.INTRA.DIHEDRAL>
2.93285

>  <SCORE.INTRA.DIHEDRAL.0>
18.0451

>  <SCORE.INTRA.POLAR>
-0.329671

>  <SCORE.INTRA.POLAR.0>
-0.196815

>  <SCORE.INTRA.REPUL>
0.00749702

>  <SCORE.INTRA.REPUL.0>
0

>  <SCORE.INTRA.SOLV>
0.91052

>  <SCORE.INTRA.SOLV.lig_0>
-14.7906

>  <SCORE.INTRA.VDW>
-0.835643

>  <SCORE.INTRA.VDW.0>
-0.411701

>  <SCORE.INTRA.norm>
8.81723e-05

>  <SCORE.RESTR>
1.01798

>  <SCORE.RESTR.CAVITY>
1.01798

>  <SCORE.RESTR.norm>
0.0339328

>  <SCORE.SYSTEM>
0

>  <SCORE.SYSTEM.CONST>
0

>  <SCORE.SYSTEM.DIHEDRAL>
0

>  <SCORE.SYSTEM.SOLV>
0

>  <SCORE.SYSTEM.norm>
0

>  <SCORE.heavy>
30

>  <SCORE.norm>
-0.320227

>  <RMSD>
19.079

$$$$
1uts_lig
 OpenBabel11021811413D
libRbt.so/2013.1/901 2013/11/27
 30 33  0  0  0  0  0  0  0  0999 V2000
   -5.1800  -12.5459    4.5007 N   0  0  0  0  0  0  0  0  0  0  0  0
   -7.5733  -12.2856    4.0092 C   0  0  0  0  0  0  0  0  0  0  0  0
   -6.7331   -9.2067    7.0679 C   0  0  0  0  0  0  0  0  0  0  0  0
   -8.1528  -10.9755    4.5505 C   0  0  0  0  0  0  0  0  0  0  0  0
   -8.5931  -11.1722    5.9022 O   0  0  0  0  0  0  0  0  0  0  0  0
   -6.1505  -12.0445    3.5016 C   0  0  0  0  0  0  0  0  0  0  0  0
   -6.1165   -8.9039    5.7563 N   0  0  0  0  0  0  0  0  0  0  0  0
   -6.7582   -7.6987    5.1675 C   0  0  0  0  0  0  0  0  0  0  0  0
   -6.2614   -7.4961    3.7331 C   0  0  0  0  0  0  0  0  0  0  0  0
   -7.0051   -8.3955    2.8226 N   0  0  0  0  0  0  0  0  0  0  0  0
   -6.5234   -8.1906    1.4262 C   0  0  0  0  0  0  0  0  0  0  0  0
   -8.4627   -8.1006    2.9185 C   0  0  0  0  0  0  0  0  0  0  0  0
   -7.2963   -9.1205    0.4770 C   0  0  0  0  0  0  0  0  0  0  0  0
   -9.2375   -9.0287    1.9656 C   0  0  0  0  0  0  0  0  0  0  0  0
   -8.7542   -8.8251    0.5716 N   0  0  0  0  0  0  0  0  0  0  0  0
  -11.0587   -8.5098    6.9336 C   0  0  0  0  0  0  0  0  0  0  0  0
  -12.1914   -2.7104    9.5833 N   0  0  0  0  0  0  0  0  0  0  0  0
  -10.2008   -7.5480    7.5187 C   0  0  0  0  0  0  0  0  0  0  0  0
   -8.8002   -7.7803    7.5593 C   0  0  0  0  0  0  0  0  0  0  0  0
   -8.2566   -8.9745    7.0114 C   0  0  0  0  0  0  0  0  0  0  0  0
   -9.1251   -9.9505    6.4366 C   0  0  0  0  0  0  0  0  0  0  0  0
  -10.5260   -9.7111    6.3959 C   0  0  0  0  0  0  0  0  0  0  0  0
  -11.0433   -1.9262    9.3292 C   0  0  0  0  0  0  0  0  0  0  0  0
  -10.0197   -2.7043    8.7422 C   0  0  0  0  0  0  0  0  0  0  0  0
   -9.9726   -5.1801    8.0849 C   0  0  0  0  0  0  0  0  0  0  0  0
  -10.7443   -6.3736    8.0581 C   0  0  0  0  0  0  0  0  0  0  0  0
  -12.0699   -6.3723    8.5729 C   0  0  0  0  0  0  0  0  0  0  0  0
  -12.6228   -5.1789    9.1110 C   0  0  0  0  0  0  0  0  0  0  0  0
  -11.8489   -3.9764    9.1238 C   0  0  0  0  0  0  0  0  0  0  0  0
  -10.5371   -3.9759    8.6155 C   0  0  0  0  0  0  0  0  0  0  0  0
  1  6  1  0  0  0  0
  2  4  1  0  0  0  0
  3  7  1  0  0  0  0
  4  5  1  0  0  0  0
  6  2  1  0  0  0  0
  7  8  1  0  0  0  0
  8  9  1  0  0  0  0
  9 10  1  0  0  0  0
 10 11  1  0  0  0  0
 10 12  1  0  0  0  0
 11 13  1  0  0  0  0
 13 15  1  0  0  0  0
 14 12  1  0  0  0  0
 15 14  1  0  0  0  0
 16 18  2  0  0  0  0
 16 22  1  0  0  0  0
 17 23  1  0  0  0  0
 17 29  1  0  0  0  0
 18 19  1  0  0  0  0
 18 26  1  0  0  0  0
 19 20  2  0  0  0  0
 20  3  1  0  0  0  0
 20 21  1  0  0  0  0
 21  5  1  0  0  0  0
 21 22  2  0  0  0  0
 23 24  2  0  0  0  0
 24 30  1  0  0  0  0
 25 26  2  0  0  0  0
 25 30  1  0  0  0  0
 26 27  1  0  0  0  0
 27 28  2  0  0  0  0
 28 29  1  0  0  0  0
 29 30  2  0  0  0  0
M  END
>  <CHROM.1>
154.31281666,-124.88597652,39.59346534,179.25540496,102.22342795,-172.22724008
80.61908076,179.72268552,-151.28718074,-101.15990946,-84.53443176,-8.81550670
-7.94916257,5.71309206,0.00066182,-1.10118034,2.32946946

>  <Name>
1uts_lig

>  <RI>
0

>  <Rbt.Current_Directory>
/home/itssahil/PROJECTS/Mol_Feturizer/New_Systems/rnas/1uts

>  <Rbt.Executable>
rbdock ($Id: //depot/dev/client3/rdock/2013.1/src/exe/rbdock.cxx#4 $)

>  <Rbt.Library>
libRbt.so (2013.1, Build901 2013/11/27)

>  <Rbt.Parameter_File>
/export/apps/rDock/src/rDock_2013.1_src/data/scripts/dock_solv.prm

>  <Rbt.Receptor>
prm/blind_docking_20.prm

>  <SCORE>
-18.7337

>  <SCORE.INTER>
-23.5572

>  <SCORE.INTER.CONST>
1

>  <SCORE.INTER.POLAR>
-2.07853

>  <SCORE.INTER.ROT>
10

>  <SCORE.INTER.SOLV>
7.28192

>  <SCORE.INTER.VDW>
-21.4703

>  <SCORE.INTER.norm>
-0.785239

>  <SCORE.INTRA>
3.9898

>  <SCORE.INTRA.DIHEDRAL>
2.31446

>  <SCORE.INTRA.DIHEDRAL.0>
18.0451

>  <SCORE.INTRA.POLAR>
0.196815

>  <SCORE.INTRA.POLAR.0>
-0.196815

>  <SCORE.INTRA.REPUL>
0.000261178

>  <SCORE.INTRA.REPUL.0>
0

>  <SCORE.INTRA.SOLV>
0.395326

>  <SCORE.INTRA.SOLV.lig_0>
-14.7906

>  <SCORE.INTRA.VDW>
1.96442

>  <SCORE.INTRA.VDW.0>
-0.411701

>  <SCORE.INTRA.norm>
0.132993

>  <SCORE.RESTR>
0.833708

>  <SCORE.RESTR.CAVITY>
0.833708

>  <SCORE.RESTR.norm>
0.0277903

>  <SCORE.SYSTEM>
0

>  <SCORE.SYSTEM.CONST>
0

>  <SCORE.SYSTEM.DIHEDRAL>
0

>  <SCORE.SYSTEM.SOLV>
0

>  <SCORE.SYSTEM.norm>
0

>  <SCORE.heavy>
30

>  <SCORE.norm>
-0.624456

>  <RMSD>
19.088

$$$$
1uts_lig
 OpenBabel11021811413D
libRbt.so/2013.1/901 2013/11/27
 30 33  0  0  0  0  0  0  0  0999 V2000
   -4.8692  -11.6713    4.1986 N   0  0  0  0  0  0  0  0  0  0  0  0
   -6.9129  -11.0917    2.9639 C   0  0  0  0  0  0  0  0  0  0  0  0
   -8.2892   -6.5098    4.4750 C   0  0  0  0  0  0  0  0  0  0  0  0
   -6.9829   -9.5639    3.0414 C   0  0  0  0  0  0  0  0  0  0  0  0
   -8.3519   -9.1565    3.1818 O   0  0  0  0  0  0  0  0  0  0  0  0
   -6.3474  -11.6450    4.2732 C   0  0  0  0  0  0  0  0  0  0  0  0
   -9.4957   -5.8276    3.9545 N   0  0  0  0  0  0  0  0  0  0  0  0
  -10.1629   -5.0816    5.0541 C   0  0  0  0  0  0  0  0  0  0  0  0
  -11.0913   -6.0215    5.8288 C   0  0  0  0  0  0  0  0  0  0  0  0
  -11.5648   -5.3443    7.0568 N   0  0  0  0  0  0  0  0  0  0  0  0
  -12.5058   -4.2493    6.6836 C   0  0  0  0  0  0  0  0  0  0  0  0
  -10.3958   -4.7947    7.8001 C   0  0  0  0  0  0  0  0  0  0  0  0
  -12.9968   -3.5410    7.9565 C   0  0  0  0  0  0  0  0  0  0  0  0
  -10.8866   -4.0819    9.0731 C   0  0  0  0  0  0  0  0  0  0  0  0
  -11.8282   -2.9900    8.6997 N   0  0  0  0  0  0  0  0  0  0  0  0
   -9.4086  -10.1363    6.6682 C   0  0  0  0  0  0  0  0  0  0  0  0
  -10.8019   -8.4065   12.7492 N   0  0  0  0  0  0  0  0  0  0  0  0
   -9.3735   -8.8862    7.3310 C   0  0  0  0  0  0  0  0  0  0  0  0
   -9.0095   -7.7151    6.6145 C   0  0  0  0  0  0  0  0  0  0  0  0
   -8.6832   -7.7938    5.2327 C   0  0  0  0  0  0  0  0  0  0  0  0
   -8.7034   -9.0579    4.5703 C   0  0  0  0  0  0  0  0  0  0  0  0
   -9.0715  -10.2264    5.2918 C   0  0  0  0  0  0  0  0  0  0  0  0
  -11.3728   -7.1163   12.6660 C   0  0  0  0  0  0  0  0  0  0  0  0
  -11.2841   -6.6084   11.3500 C   0  0  0  0  0  0  0  0  0  0  0  0
  -10.3207   -7.6530    9.2181 C   0  0  0  0  0  0  0  0  0  0  0  0
   -9.6951   -8.8167    8.6938 C   0  0  0  0  0  0  0  0  0  0  0  0
   -9.4026   -9.9121    9.5521 C   0  0  0  0  0  0  0  0  0  0  0  0
   -9.7375   -9.8439   10.9316 C   0  0  0  0  0  0  0  0  0  0  0  0
  -10.3794   -8.6774   11.4533 C   0  0  0  0  0  0  0  0  0  0  0  0
  -10.6690   -7.5925   10.6057 C   0  0  0  0  0  0  0  0  0  0  0  0
  1  6  1  0  0  0  0
  2  4  1  0  0  0  0
  3  7  1  0  0  0  0
  4  5  1  0  0  0  0
  6  2  1  0  0  0  0
  7  8  1  0  0  0  0
  8  9  1  0  0  0  0
  9 10  1  0  0  0  0
 10 11  1  0  0  0  0
 10 12  1  0  0  0  0
 11 13  1  0  0  0  0
 13 15  1  0  0  0  0
 14 12  1  0  0  0  0
 15 14  1  0  0  0  0
 16 18  2  0  0  0  0
 16 22  1  0  0  0  0
 17 23  1  0  0  0  0
 17 29  1  0  0  0  0
 18 19  1  0  0  0  0
 18 26  1  0  0  0  0
 19 20  2  0  0  0  0
 20  3  1  0  0  0  0
 20 21  1  0  0  0  0
 21  5  1  0  0  0  0
 21 22  2  0  0  0  0
 23 24  2  0  0  0  0
 24 30  1  0  0  0  0
 25 26  2  0  0  0  0
 25 30  1  0  0  0  0
 26 27  1  0  0  0  0
 27 28  2  0  0  0  0
 28 29  1  0  0  0  0
 29 30  2  0  0  0  0
M  END
>  <CHROM.1>
-77.28455300,-107.04113790,78.39761213,90.86438165,-87.08803218,-84.78551615
170.06167794,69.98613870,-147.91296402,-87.08897906,97.62583642,-9.65842703
-7.62553681,7.14538971,-0.39200027,-1.00505562,2.06792593

>  <Name>
1uts_lig

>  <RI>
0

>  <Rbt.Current_Directory>
/home/itssahil/PROJECTS/Mol_Feturizer/New_Systems/rnas/1uts

>  <Rbt.Executable>
rbdock ($Id: //depot/dev/client3/rdock/2013.1/src/exe/rbdock.cxx#4 $)

>  <Rbt.Library>
libRbt.so (2013.1, Build901 2013/11/27)

>  <Rbt.Parameter_File>
/export/apps/rDock/src/rDock_2013.1_src/data/scripts/dock_solv.prm

>  <Rbt.Receptor>
prm/blind_docking_20.prm

>  <SCORE>
-13.6248

>  <SCORE.INTER>
-21.6682

>  <SCORE.INTER.CONST>
1

>  <SCORE.INTER.POLAR>
-2.10206

>  <SCORE.INTER.ROT>
10

>  <SCORE.INTER.SOLV>
8.48835

>  <SCORE.INTER.VDW>
-20.5347

>  <SCORE.INTER.norm>
-0.722274

>  <SCORE.INTRA>
6.42033

>  <SCORE.INTRA.DIHEDRAL>
3.07633

>  <SCORE.INTRA.DIHEDRAL.0>
18.0451

>  <SCORE.INTRA.POLAR>
0.196815

>  <SCORE.INTRA.POLAR.0>
-0.196815

>  <SCORE.INTRA.REPUL>
0

>  <SCORE.INTRA.REPUL.0>
0

>  <SCORE.INTRA.SOLV>
-0.153592

>  <SCORE.INTRA.SOLV.lig_0>
-14.7906

>  <SCORE.INTRA.VDW>
4.28979

>  <SCORE.INTRA.VDW.0>
-0.411701

>  <SCORE.INTRA.norm>
0.214011

>  <SCORE.RESTR>
1.62306

>  <SCORE.RESTR.CAVITY>
1.62306

>  <SCORE.RESTR.norm>
0.0541022

>  <SCORE.SYSTEM>
0

>  <SCORE.SYSTEM.CONST>
0

>  <SCORE.SYSTEM.DIHEDRAL>
0

>  <SCORE.SYSTEM.SOLV>
0

>  <SCORE.SYSTEM.norm>
0

>  <SCORE.heavy>
30

>  <SCORE.norm>
-0.45416

>  <RMSD>
19.090

$$$$
1uts_lig
 OpenBabel11021811413D
libRbt.so/2013.1/901 2013/11/27
 30 33  0  0  0  0  0  0  0  0999 V2000
  -10.1663   -6.0287   11.0551 N   0  0  0  0  0  0  0  0  0  0  0  0
  -10.2794   -8.4010   11.6849 C   0  0  0  0  0  0  0  0  0  0  0  0
  -12.1630   -8.5044    7.0897 C   0  0  0  0  0  0  0  0  0  0  0  0
   -9.6317   -8.7176   10.3339 C   0  0  0  0  0  0  0  0  0  0  0  0
  -10.2922   -7.9698    9.3023 O   0  0  0  0  0  0  0  0  0  0  0  0
  -11.0560   -7.0868   11.5845 C   0  0  0  0  0  0  0  0  0  0  0  0
  -12.6337   -7.1167    6.8781 N   0  0  0  0  0  0  0  0  0  0  0  0
  -13.1260   -6.5533    8.1630 C   0  0  0  0  0  0  0  0  0  0  0  0
  -13.2710   -5.0336    8.0404 C   0  0  0  0  0  0  0  0  0  0  0  0
  -12.1163   -4.3745    8.6908 N   0  0  0  0  0  0  0  0  0  0  0  0
  -12.4213   -2.9280    8.8871 C   0  0  0  0  0  0  0  0  0  0  0  0
  -10.9070   -4.5397    7.8357 C   0  0  0  0  0  0  0  0  0  0  0  0
  -11.2224   -2.2393    9.5590 C   0  0  0  0  0  0  0  0  0  0  0  0
   -9.7066   -3.8471    8.5058 C   0  0  0  0  0  0  0  0  0  0  0  0
  -10.0129   -2.4030    8.7037 N   0  0  0  0  0  0  0  0  0  0  0  0
   -7.8182   -8.7491    6.5630 C   0  0  0  0  0  0  0  0  0  0  0  0
   -6.4344  -10.2478    0.4700 N   0  0  0  0  0  0  0  0  0  0  0  0
   -8.6834   -9.0311    5.4789 C   0  0  0  0  0  0  0  0  0  0  0  0
  -10.0904   -8.9504    5.6566 C   0  0  0  0  0  0  0  0  0  0  0  0
  -10.6325   -8.5842    6.9191 C   0  0  0  0  0  0  0  0  0  0  0  0
   -9.7586   -8.3161    8.0152 C   0  0  0  0  0  0  0  0  0  0  0  0
   -8.3510   -8.3955    7.8307 C   0  0  0  0  0  0  0  0  0  0  0  0
   -6.2104   -8.9167    0.0509 C   0  0  0  0  0  0  0  0  0  0  0  0
   -6.6581   -7.9976    1.0269 C   0  0  0  0  0  0  0  0  0  0  0  0
   -7.7234   -8.3875    3.3240 C   0  0  0  0  0  0  0  0  0  0  0  0
   -8.1416   -9.3930    4.2376 C   0  0  0  0  0  0  0  0  0  0  0  0
   -8.0030  -10.7657    3.8930 C   0  0  0  0  0  0  0  0  0  0  0  0
   -7.4451  -11.1313    2.6382 C   0  0  0  0  0  0  0  0  0  0  0  0
   -7.0125  -10.1175    1.7270 C   0  0  0  0  0  0  0  0  0  0  0  0
   -7.1494   -8.7589    2.0659 C   0  0  0  0  0  0  0  0  0  0  0  0
  1  6  1  0  0  0  0
  2  4  1  0  0  0  0
  3  7  1  0  0  0  0
  4  5  1  0  0  0  0
  6  2  1  0  0  0  0
  7  8  1  0  0  0  0
  8  9  1  0  0  0  0
  9 10  1  0  0  0  0
 10 11  1  0  0  0  0
 10 12  1  0  0  0  0
 11 13  1  0  0  0  0
 13 15  1  0  0  0  0
 14 12  1  0  0  0  0
 15 14  1  0  0  0  0
 16 18  2  0  0  0  0
 16 22  1  0  0  0  0
 17 23  1  0  0  0  0
 17 29  1  0  0  0  0
 18 19  1  0  0  0  0
 18 26  1  0  0  0  0
 19 20  2  0  0  0  0
 20  3  1  0  0  0  0
 20 21  1  0  0  0  0
 21  5  1  0  0  0  0
 21 22  2  0  0  0  0
 23 24  2  0  0  0  0
 24 30  1  0  0  0  0
 25 26  2  0  0  0  0
 25 30  1  0  0  0  0
 26 27  1  0  0  0  0
 27 28  2  0  0  0  0
 28 29  1  0  0  0  0
 29 30  2  0  0  0  0
M  END
>  <CHROM.1>
-173.39610220,-19.23850575,-111.71709114,-176.27345215,-53.14547061,165.45483143
-101.54364591,-165.41595820,-84.26005996,-94.56821073,133.83053171,-9.72264500
-7.33248530,6.69091438,-3.05754362,1.12314298,-0.63573831

>  <Name>
1uts_lig

>  <RI>
0

>  <Rbt.Current_Directory>
/home/itssahil/PROJECTS/Mol_Feturizer/New_Systems/rnas/1uts

>  <Rbt.Executable>
rbdock ($Id: //depot/dev/client3/rdock/2013.1/src/exe/rbdock.cxx#4 $)

>  <Rbt.Library>
libRbt.so (2013.1, Build901 2013/11/27)

>  <Rbt.Parameter_File>
/export/apps/rDock/src/rDock_2013.1_src/data/scripts/dock_solv.prm

>  <Rbt.Receptor>
prm/blind_docking_20.prm

>  <SCORE>
-9.81692

>  <SCORE.INTER>
-14.4996

>  <SCORE.INTER.CONST>
1

>  <SCORE.INTER.POLAR>
-0.774597

>  <SCORE.INTER.ROT>
10

>  <SCORE.INTER.SOLV>
5.15328

>  <SCORE.INTER.VDW>
-19.0689

>  <SCORE.INTER.norm>
-0.483321

>  <SCORE.INTRA>
2.26919

>  <SCORE.INTRA.DIHEDRAL>
3.21199

>  <SCORE.INTRA.DIHEDRAL.0>
18.0451

>  <SCORE.INTRA.POLAR>
-0.233665

>  <SCORE.INTRA.POLAR.0>
-0.196815

>  <SCORE.INTRA.REPUL>
0

>  <SCORE.INTRA.REPUL.0>
0

>  <SCORE.INTRA.SOLV>
0.999968

>  <SCORE.INTRA.SOLV.lig_0>
-14.7906

>  <SCORE.INTRA.VDW>
0.957675

>  <SCORE.INTRA.VDW.0>
-0.411701

>  <SCORE.INTRA.norm>
0.0756398

>  <SCORE.RESTR>
2.41352

>  <SCORE.RESTR.CAVITY>
2.41352

>  <SCORE.RESTR.norm>
0.0804507

>  <SCORE.SYSTEM>
0

>  <SCORE.SYSTEM.CONST>
0

>  <SCORE.SYSTEM.DIHEDRAL>
0

>  <SCORE.SYSTEM.SOLV>
0

>  <SCORE.SYSTEM.norm>
0

>  <SCORE.heavy>
30

>  <SCORE.norm>
-0.327231

>  <RMSD>
19.097

$$$$
1uts_lig
 OpenBabel11021811413D
libRbt.so/2013.1/901 2013/11/27
 30 33  0  0  0  0  0  0  0  0999 V2000
   -5.8945  -13.3371    3.8127 N   0  0  0  0  0  0  0  0  0  0  0  0
   -6.3255  -10.9203    3.9153 C   0  0  0  0  0  0  0  0  0  0  0  0
   -7.6120   -6.7310    4.4025 C   0  0  0  0  0  0  0  0  0  0  0  0
   -7.7242  -10.8038    3.3028 C   0  0  0  0  0  0  0  0  0  0  0  0
   -8.1860   -9.4503    3.4243 O   0  0  0  0  0  0  0  0  0  0  0  0
   -6.2264  -12.2166    4.7215 C   0  0  0  0  0  0  0  0  0  0  0  0
   -8.4105   -5.4899    4.5204 N   0  0  0  0  0  0  0  0  0  0  0  0
   -9.7988   -5.7410    4.0508 C   0  0  0  0  0  0  0  0  0  0  0  0
  -10.7833   -4.9062    4.8751 C   0  0  0  0  0  0  0  0  0  0  0  0
  -10.9576   -5.5247    6.2086 N   0  0  0  0  0  0  0  0  0  0  0  0
  -11.6568   -6.8331    6.0569 C   0  0  0  0  0  0  0  0  0  0  0  0
  -11.7496   -4.6095    7.0780 C   0  0  0  0  0  0  0  0  0  0  0  0
  -11.8430   -7.4768    7.4404 C   0  0  0  0  0  0  0  0  0  0  0  0
  -11.9400   -5.2546    8.4626 C   0  0  0  0  0  0  0  0  0  0  0  0
  -12.6362   -6.5624    8.3101 N   0  0  0  0  0  0  0  0  0  0  0  0
   -9.2632   -9.8362    7.0190 C   0  0  0  0  0  0  0  0  0  0  0  0
  -10.0332   -7.6849   12.9901 N   0  0  0  0  0  0  0  0  0  0  0  0
   -8.9847   -8.5470    7.5326 C   0  0  0  0  0  0  0  0  0  0  0  0
   -8.4493   -7.5456    6.6794 C   0  0  0  0  0  0  0  0  0  0  0  0
   -8.1950   -7.8329    5.3102 C   0  0  0  0  0  0  0  0  0  0  0  0
   -8.4613   -9.1383    4.7983 C   0  0  0  0  0  0  0  0  0  0  0  0
   -9.0001  -10.1359    5.6563 C   0  0  0  0  0  0  0  0  0  0  0  0
  -10.5502   -8.9694   13.2740 C   0  0  0  0  0  0  0  0  0  0  0  0
  -10.5694   -9.7743   12.1123 C   0  0  0  0  0  0  0  0  0  0  0  0
   -9.8120   -9.2688    9.7176 C   0  0  0  0  0  0  0  0  0  0  0  0
   -9.2367   -8.2716    8.8840 C   0  0  0  0  0  0  0  0  0  0  0  0
   -8.9110   -6.9972    9.4246 C   0  0  0  0  0  0  0  0  0  0  0  0
   -9.1583   -6.7224   10.7968 C   0  0  0  0  0  0  0  0  0  0  0  0
   -9.7244   -7.7325   11.6361 C   0  0  0  0  0  0  0  0  0  0  0  0
  -10.0478   -8.9936   11.1028 C   0  0  0  0  0  0  0  0  0  0  0  0
  1  6  1  0  0  0  0
  2  4  1  0  0  0  0
  3  7  1  0  0  0  0
  4  5  1  0  0  0  0
  6  2  1  0  0  0  0
  7  8  1  0  0  0  0
  8  9  1  0  0  0  0
  9 10  1  0  0  0  0
 10 11  1  0  0  0  0
 10 12  1  0  0  0  0
 11 13  1  0  0  0  0
 13 15  1  0  0  0  0
 14 12  1  0  0  0  0
 15 14  1  0  0  0  0
 16 18  2  0  0  0  0
 16 22  1  0  0  0  0
 17 23  1  0  0  0  0
 17 29  1  0  0  0  0
 18 19  1  0  0  0  0
 18 26  1  0  0  0  0
 19 20  2  0  0  0  0
 20  3  1  0  0  0  0
 20 21  1  0  0  0  0
 21  5  1  0  0  0  0
 21 22  2  0  0  0  0
 23 24  2  0  0  0  0
 24 30  1  0  0  0  0
 25 26  2  0  0  0  0
 25 30  1  0  0  0  0
 26 27  1  0  0  0  0
 27 28  2  0  0  0  0
 28 29  1  0  0  0  0
 29 30  2  0  0  0  0
M  END
>  <CHROM.1>
-51.26526864,138.36089359,-62.68040347,-69.72714422,83.90703956,145.77092625
-75.87753291,-67.44100293,-2.20710443,-51.10034100,144.32654753,-9.39531127
-8.10619616,7.14447225,-0.70591298,-0.99553151,1.95833408

>  <Name>
1uts_lig

>  <RI>
0

>  <Rbt.Current_Directory>
/home/itssahil/PROJECTS/Mol_Feturizer/New_Systems/rnas/1uts

>  <Rbt.Executable>
rbdock ($Id: //depot/dev/client3/rdock/2013.1/src/exe/rbdock.cxx#4 $)

>  <Rbt.Library>
libRbt.so (2013.1, Build901 2013/11/27)

>  <Rbt.Parameter_File>
/export/apps/rDock/src/rDock_2013.1_src/data/scripts/dock_solv.prm

>  <Rbt.Receptor>
prm/blind_docking_20.prm

>  <SCORE>
-14.3748

>  <SCORE.INTER>
-14.8872

>  <SCORE.INTER.CONST>
1

>  <SCORE.INTER.POLAR>
-0.827305

>  <SCORE.INTER.ROT>
10

>  <SCORE.INTER.SOLV>
6.62921

>  <SCORE.INTER.VDW>
-19.6435

>  <SCORE.INTER.norm>
-0.496239

>  <SCORE.INTRA>
-0.382216

>  <SCORE.INTRA.DIHEDRAL>
-5.54583

>  <SCORE.INTRA.DIHEDRAL.0>
18.0451

>  <SCORE.INTRA.POLAR>
0.196815

>  <SCORE.INTRA.POLAR.0>
-0.196815

>  <SCORE.INTRA.REPUL>
0

>  <SCORE.INTRA.REPUL.0>
0

>  <SCORE.INTRA.SOLV>
0.159414

>  <SCORE.INTRA.SOLV.lig_0>
-14.7906

>  <SCORE.INTRA.VDW>
1.64182

>  <SCORE.INTRA.VDW.0>
-0.411701

>  <SCORE.INTRA.norm>
-0.0127405

>  <SCORE.RESTR>
0.894574

>  <SCORE.RESTR.CAVITY>
0.894574

>  <SCORE.RESTR.norm>
0.0298191

>  <SCORE.SYSTEM>
0

>  <SCORE.SYSTEM.CONST>
0

>  <SCORE.SYSTEM.DIHEDRAL>
0

>  <SCORE.SYSTEM.SOLV>
0

>  <SCORE.SYSTEM.norm>
0

>  <SCORE.heavy>
30

>  <SCORE.norm>
-0.479161

>  <RMSD>
19.137

$$$$
1uts_lig
 OpenBabel11021811413D
libRbt.so/2013.1/901 2013/11/27
 30 33  0  0  0  0  0  0  0  0999 V2000
   -5.1040  -14.1441    4.6691 N   0  0  0  0  0  0  0  0  0  0  0  0
   -6.4829  -12.2845    3.8458 C   0  0  0  0  0  0  0  0  0  0  0  0
   -9.0066   -9.8045    3.7717 C   0  0  0  0  0  0  0  0  0  0  0  0
   -5.5928  -11.2399    4.5253 C   0  0  0  0  0  0  0  0  0  0  0  0
   -6.1013   -9.9271    4.2462 O   0  0  0  0  0  0  0  0  0  0  0  0
   -6.4714  -13.5768    4.6644 C   0  0  0  0  0  0  0  0  0  0  0  0
   -9.8898   -8.7211    3.2837 N   0  0  0  0  0  0  0  0  0  0  0  0
   -9.1258   -7.4476    3.2087 C   0  0  0  0  0  0  0  0  0  0  0  0
  -10.0658   -6.2644    3.4576 C   0  0  0  0  0  0  0  0  0  0  0  0
  -10.2293   -6.0632    4.9149 N   0  0  0  0  0  0  0  0  0  0  0  0
  -11.4337   -5.2198    5.1634 C   0  0  0  0  0  0  0  0  0  0  0  0
   -9.0104   -5.4035    5.4625 C   0  0  0  0  0  0  0  0  0  0  0  0
  -11.6046   -5.0054    6.6760 C   0  0  0  0  0  0  0  0  0  0  0  0
   -9.1819   -5.1849    6.9765 C   0  0  0  0  0  0  0  0  0  0  0  0
  -10.3863   -4.3445    7.2240 N   0  0  0  0  0  0  0  0  0  0  0  0
   -7.2354   -8.6715    7.6179 C   0  0  0  0  0  0  0  0  0  0  0  0
  -11.7207   -6.8038   11.7772 N   0  0  0  0  0  0  0  0  0  0  0  0
   -8.6346   -8.5812    7.4247 C   0  0  0  0  0  0  0  0  0  0  0  0
   -9.2020   -8.9495    6.1757 C   0  0  0  0  0  0  0  0  0  0  0  0
   -8.3693   -9.4116    5.1198 C   0  0  0  0  0  0  0  0  0  0  0  0
   -6.9569   -9.4864    5.3114 C   0  0  0  0  0  0  0  0  0  0  0  0
   -6.3949   -9.1193    6.5648 C   0  0  0  0  0  0  0  0  0  0  0  0
  -10.9135   -7.3523   12.7996 C   0  0  0  0  0  0  0  0  0  0  0  0
   -9.8139   -8.0529   12.2539 C   0  0  0  0  0  0  0  0  0  0  0  0
   -9.1068   -8.4155    9.8182 C   0  0  0  0  0  0  0  0  0  0  0  0
   -9.4490   -8.1232    8.4699 C   0  0  0  0  0  0  0  0  0  0  0  0
  -10.6144   -7.3602    8.1839 C   0  0  0  0  0  0  0  0  0  0  0  0
  -11.4341   -6.8887    9.2447 C   0  0  0  0  0  0  0  0  0  0  0  0
  -11.0796   -7.1726   10.6007 C   0  0  0  0  0  0  0  0  0  0  0  0
   -9.9273   -7.9279   10.8857 C   0  0  0  0  0  0  0  0  0  0  0  0
  1  6  1  0  0  0  0
  2  4  1  0  0  0  0
  3  7  1  0  0  0  0
  4  5  1  0  0  0  0
  6  2  1  0  0  0  0
  7  8  1  0  0  0  0
  8  9  1  0  0  0  0
  9 10  1  0  0  0  0
 10 11  1  0  0  0  0
 10 12  1  0  0  0  0
 11 13  1  0  0  0  0
 13 15  1  0  0  0  0
 14 12  1  0  0  0  0
 15 14  1  0  0  0  0
 16 18  2  0  0  0  0
 16 22  1  0  0  0  0
 17 23  1  0  0  0  0
 17 29  1  0  0  0  0
 18 19  1  0  0  0  0
 18 26  1  0  0  0  0
 19 20  2  0  0  0  0
 20  3  1  0  0  0  0
 20 21  1  0  0  0  0
 21  5  1  0  0  0  0
 21 22  2  0  0  0  0
 23 24  2  0  0  0  0
 24 30  1  0  0  0  0
 25 26  2  0  0  0  0
 25 30  1  0  0  0  0
 26 27  1  0  0  0  0
 27 28  2  0  0  0  0
 28 29  1  0  0  0  0
 29 30  2  0  0  0  0
M  END
>  <CHROM.1>
-56.08110188,-149.81422563,55.19783841,94.98766914,-64.11880763,-149.57149076
83.36426187,-162.70745471,-33.59439125,51.11132418,-107.90654087,-8.99064603
-8.25354444,6.69910592,-0.49325208,-0.97212374,1.82317030

>  <Name>
1uts_lig

>  <RI>
0

>  <Rbt.Current_Directory>
/home/itssahil/PROJECTS/Mol_Feturizer/New_Systems/rnas/1uts

>  <Rbt.Executable>
rbdock ($Id: //depot/dev/client3/rdock/2013.1/src/exe/rbdock.cxx#4 $)

>  <Rbt.Library>
libRbt.so (2013.1, Build901 2013/11/27)

>  <Rbt.Parameter_File>
/export/apps/rDock/src/rDock_2013.1_src/data/scripts/dock_solv.prm

>  <Rbt.Receptor>
prm/blind_docking_20.prm

>  <SCORE>
-16.4019

>  <SCORE.INTER>
-19.9541

>  <SCORE.INTER.CONST>
1

>  <SCORE.INTER.POLAR>
-1.26141

>  <SCORE.INTER.ROT>
10

>  <SCORE.INTER.SOLV>
8.19558

>  <SCORE.INTER.VDW>
-22.0965

>  <SCORE.INTER.norm>
-0.665136

>  <SCORE.INTRA>
1.25476

>  <SCORE.INTRA.DIHEDRAL>
0.287865

>  <SCORE.INTRA.DIHEDRAL.0>
18.0451

>  <SCORE.INTRA.POLAR>
0.196815

>  <SCORE.INTRA.POLAR.0>
-0.196815

>  <SCORE.INTRA.REPUL>
0

>  <SCORE.INTRA.REPUL.0>
0

>  <SCORE.INTRA.SOLV>
0.229257

>  <SCORE.INTRA.SOLV.lig_0>
-14.7906

>  <SCORE.INTRA.VDW>
0.327032

>  <SCORE.INTRA.VDW.0>
-0.411701

>  <SCORE.INTRA.norm>
0.0418255

>  <SCORE.RESTR>
2.29742

>  <SCORE.RESTR.CAVITY>
2.29742

>  <SCORE.RESTR.norm>
0.0765808

>  <SCORE.SYSTEM>
0

>  <SCORE.SYSTEM.CONST>
0

>  <SCORE.SYSTEM.DIHEDRAL>
0

>  <SCORE.SYSTEM.SOLV>
0

>  <SCORE.SYSTEM.norm>
0

>  <SCORE.heavy>
30

>  <SCORE.norm>
-0.54673

>  <RMSD>
19.141

$$$$
1uts_lig
 OpenBabel11021811413D
libRbt.so/2013.1/901 2013/11/27
 30 33  0  0  0  0  0  0  0  0999 V2000
   -6.6818  -11.1741    3.1611 N   0  0  0  0  0  0  0  0  0  0  0  0
   -7.2231   -9.1824    1.8279 C   0  0  0  0  0  0  0  0  0  0  0  0
   -8.6113   -5.2269    5.0673 C   0  0  0  0  0  0  0  0  0  0  0  0
   -7.0055   -8.1399    2.9283 C   0  0  0  0  0  0  0  0  0  0  0  0
   -8.2594   -7.5220    3.2536 O   0  0  0  0  0  0  0  0  0  0  0  0
   -7.7700  -10.4710    2.4450 C   0  0  0  0  0  0  0  0  0  0  0  0
   -9.9344   -4.5742    4.9428 N   0  0  0  0  0  0  0  0  0  0  0  0
  -10.9817   -5.4481    5.5348 C   0  0  0  0  0  0  0  0  0  0  0  0
  -11.9043   -4.6165    6.4308 C   0  0  0  0  0  0  0  0  0  0  0  0
  -12.2849   -5.4123    7.6194 N   0  0  0  0  0  0  0  0  0  0  0  0
  -13.2385   -6.4832    7.2102 C   0  0  0  0  0  0  0  0  0  0  0  0
  -12.9114   -4.5175    8.6332 C   0  0  0  0  0  0  0  0  0  0  0  0
  -13.6391   -7.3095    8.4431 C   0  0  0  0  0  0  0  0  0  0  0  0
  -13.3163   -5.3445    9.8667 C   0  0  0  0  0  0  0  0  0  0  0  0
  -14.2669   -6.4154    9.4568 N   0  0  0  0  0  0  0  0  0  0  0  0
   -9.0786   -9.3625    6.4431 C   0  0  0  0  0  0  0  0  0  0  0  0
  -10.6054   -9.1609   12.7357 N   0  0  0  0  0  0  0  0  0  0  0  0
   -9.2385   -8.2883    7.3507 C   0  0  0  0  0  0  0  0  0  0  0  0
   -9.0853   -6.9506    6.8984 C   0  0  0  0  0  0  0  0  0  0  0  0
   -8.7748   -6.6868    5.5361 C   0  0  0  0  0  0  0  0  0  0  0  0
   -8.5979   -7.7721    4.6262 C   0  0  0  0  0  0  0  0  0  0  0  0
   -8.7556   -9.1090    5.0839 C   0  0  0  0  0  0  0  0  0  0  0  0
  -11.2143   -7.9065   12.9671 C   0  0  0  0  0  0  0  0  0  0  0  0
  -11.1583   -7.0967   11.8101 C   0  0  0  0  0  0  0  0  0  0  0  0
  -10.1947   -7.5714    9.4841 C   0  0  0  0  0  0  0  0  0  0  0  0
   -9.5432   -8.5562    8.6927 C   0  0  0  0  0  0  0  0  0  0  0  0
   -9.2076   -9.8152    9.2624 C   0  0  0  0  0  0  0  0  0  0  0  0
   -9.5252  -10.0888   10.6203 C   0  0  0  0  0  0  0  0  0  0  0  0
  -10.1932   -9.1012   11.4099 C   0  0  0  0  0  0  0  0  0  0  0  0
  -10.5255   -7.8549   10.8482 C   0  0  0  0  0  0  0  0  0  0  0  0
  1  6  1  0  0  0  0
  2  4  1  0  0  0  0
  3  7  1  0  0  0  0
  4  5  1  0  0  0  0
  6  2  1  0  0  0  0
  7  8  1  0  0  0  0
  8  9  1  0  0  0  0
  9 10  1  0  0  0  0
 10 11  1  0  0  0  0
 10 12  1  0  0  0  0
 11 13  1  0  0  0  0
 13 15  1  0  0  0  0
 14 12  1  0  0  0  0
 15 14  1  0  0  0  0
 16 18  2  0  0  0  0
 16 22  1  0  0  0  0
 17 23  1  0  0  0  0
 17 29  1  0  0  0  0
 18 19  1  0  0  0  0
 18 26  1  0  0  0  0
 19 20  2  0  0  0  0
 20  3  1  0  0  0  0
 20 21  1  0  0  0  0
 21  5  1  0  0  0  0
 21 22  2  0  0  0  0
 23 24  2  0  0  0  0
 24 30  1  0  0  0  0
 25 26  2  0  0  0  0
 25 30  1  0  0  0  0
 26 27  1  0  0  0  0
 27 28  2  0  0  0  0
 28 29  1  0  0  0  0
 29 30  2  0  0  0  0
M  END
>  <CHROM.1>
-108.31605153,-80.15133403,9.93496066,118.31552024,-74.34190923,133.91564810
-142.51990237,-71.99914365,-155.95273150,-75.58791642,119.98469037,-10.14044375
-7.54648571,7.26344246,-0.75667971,-0.83550751,2.03687261

>  <Name>
1uts_lig

>  <RI>
0

>  <Rbt.Current_Directory>
/home/itssahil/PROJECTS/Mol_Feturizer/New_Systems/rnas/1uts

>  <Rbt.Executable>
rbdock ($Id: //depot/dev/client3/rdock/2013.1/src/exe/rbdock.cxx#4 $)

>  <Rbt.Library>
libRbt.so (2013.1, Build901 2013/11/27)

>  <Rbt.Parameter_File>
/export/apps/rDock/src/rDock_2013.1_src/data/scripts/dock_solv.prm

>  <Rbt.Receptor>
prm/blind_docking_20.prm

>  <SCORE>
-4.71986

>  <SCORE.INTER>
-19.0327

>  <SCORE.INTER.CONST>
1

>  <SCORE.INTER.POLAR>
-1.76075

>  <SCORE.INTER.ROT>
10

>  <SCORE.INTER.SOLV>
9.24012

>  <SCORE.INTER.VDW>
-20.166

>  <SCORE.INTER.norm>
-0.634423

>  <SCORE.INTRA>
13.1033

>  <SCORE.INTRA.DIHEDRAL>
10.3462

>  <SCORE.INTRA.DIHEDRAL.0>
18.0451

>  <SCORE.INTRA.POLAR>
0.196815

>  <SCORE.INTRA.POLAR.0>
-0.196815

>  <SCORE.INTRA.REPUL>
0

>  <SCORE.INTRA.REPUL.0>
0

>  <SCORE.INTRA.SOLV>
0.102036

>  <SCORE.INTRA.SOLV.lig_0>
-14.7906

>  <SCORE.INTRA.VDW>
7.21006

>  <SCORE.INTRA.VDW.0>
-0.411701

>  <SCORE.INTRA.norm>
0.436778

>  <SCORE.RESTR>
1.20951

>  <SCORE.RESTR.CAVITY>
1.20951

>  <SCORE.RESTR.norm>
0.0403169

>  <SCORE.SYSTEM>
0

>  <SCORE.SYSTEM.CONST>
0

>  <SCORE.SYSTEM.DIHEDRAL>
0

>  <SCORE.SYSTEM.SOLV>
0

>  <SCORE.SYSTEM.norm>
0

>  <SCORE.heavy>
30

>  <SCORE.norm>
-0.157329

>  <RMSD>
19.227

$$$$
1uts_lig
 OpenBabel11021811413D
libRbt.so/2013.1/901 2013/11/27
 30 33  0  0  0  0  0  0  0  0999 V2000
  -13.3753   -5.5832   10.6445 N   0  0  0  0  0  0  0  0  0  0  0  0
  -14.4105   -6.2824    8.5287 C   0  0  0  0  0  0  0  0  0  0  0  0
  -10.8651   -5.7543    5.2787 C   0  0  0  0  0  0  0  0  0  0  0  0
  -13.4504   -7.2205    7.7916 C   0  0  0  0  0  0  0  0  0  0  0  0
  -12.1355   -6.6455    7.7833 O   0  0  0  0  0  0  0  0  0  0  0  0
  -14.3241   -6.5415   10.0339 C   0  0  0  0  0  0  0  0  0  0  0  0
  -10.8007   -4.6908    6.3067 N   0  0  0  0  0  0  0  0  0  0  0  0
   -9.4195   -4.6025    6.8503 C   0  0  0  0  0  0  0  0  0  0  0  0
   -9.4709   -4.2571    8.3415 C   0  0  0  0  0  0  0  0  0  0  0  0
  -10.3710   -3.1004    8.5484 N   0  0  0  0  0  0  0  0  0  0  0  0
   -9.7974   -2.2123    9.6001 C   0  0  0  0  0  0  0  0  0  0  0  0
  -11.7177   -3.5894    8.9584 C   0  0  0  0  0  0  0  0  0  0  0  0
  -10.7316   -1.0115    9.8206 C   0  0  0  0  0  0  0  0  0  0  0  0
  -12.6531   -2.3877    9.1831 C   0  0  0  0  0  0  0  0  0  0  0  0
  -12.0784   -1.4999   10.2319 N   0  0  0  0  0  0  0  0  0  0  0  0
  -10.0194   -9.6787    7.0392 C   0  0  0  0  0  0  0  0  0  0  0  0
   -5.6901  -12.7694    3.4198 N   0  0  0  0  0  0  0  0  0  0  0  0
   -9.4017   -9.2955    5.8247 C   0  0  0  0  0  0  0  0  0  0  0  0
   -9.6805   -8.0226    5.2594 C   0  0  0  0  0  0  0  0  0  0  0  0
  -10.5757   -7.1306    5.9112 C   0  0  0  0  0  0  0  0  0  0  0  0
  -11.2101   -7.5255    7.1273 C   0  0  0  0  0  0  0  0  0  0  0  0
  -10.9247   -8.7997    7.6901 C   0  0  0  0  0  0  0  0  0  0  0  0
   -4.5293  -12.2227    4.0125 C   0  0  0  0  0  0  0  0  0  0  0  0
   -4.8547  -11.1268    4.8436 C   0  0  0  0  0  0  0  0  0  0  0  0
   -7.1220  -10.0797    5.4154 C   0  0  0  0  0  0  0  0  0  0  0  0
   -8.5213  -10.1809    5.1871 C   0  0  0  0  0  0  0  0  0  0  0  0
   -9.0266  -11.1856    4.3168 C   0  0  0  0  0  0  0  0  0  0  0  0
   -8.1339  -12.0883    3.6783 C   0  0  0  0  0  0  0  0  0  0  0  0
   -6.7278  -11.9927    3.9209 C   0  0  0  0  0  0  0  0  0  0  0  0
   -6.2260  -10.9990    4.7811 C   0  0  0  0  0  0  0  0  0  0  0  0
  1  6  1  0  0  0  0
  2  4  1  0  0  0  0
  3  7  1  0  0  0  0
  4  5  1  0  0  0  0
  6  2  1  0  0  0  0
  7  8  1  0  0  0  0
  8  9  1  0  0  0  0
  9 10  1  0  0  0  0
 10 11  1  0  0  0  0
 10 12  1  0  0  0  0
 11 13  1  0  0  0  0
 13 15  1  0  0  0  0
 14 12  1  0  0  0  0
 15 14  1  0  0  0  0
 16 18  2  0  0  0  0
 16 22  1  0  0  0  0
 17 23  1  0  0  0  0
 17 29  1  0  0  0  0
 18 19  1  0  0  0  0
 18 26  1  0  0  0  0
 19 20  2  0  0  0  0
 20  3  1  0  0  0  0
 20 21  1  0  0  0  0
 21  5  1  0  0  0  0
 21 22  2  0  0  0  0
 23 24  2  0  0  0  0
 24 30  1  0  0  0  0
 25 26  2  0  0  0  0
 25 30  1  0  0  0  0
 26 27  1  0  0  0  0
 27 28  2  0  0  0  0
 28 29  1  0  0  0  0
 29 30  2  0  0  0  0
M  END
>  <CHROM.1>
48.52521446,-84.24340683,63.88353332,178.48346629,95.30306460,-144.64392688
-49.20128898,-141.66081773,-94.89610662,-134.31643304,115.40850991,-10.05627438
-7.09933322,6.99235256,2.11778977,0.35112747,0.34459019

>  <Name>
1uts_lig

>  <RI>
0

>  <Rbt.Current_Directory>
/home/itssahil/PROJECTS/Mol_Feturizer/New_Systems/rnas/1uts

>  <Rbt.Executable>
rbdock ($Id: //depot/dev/client3/rdock/2013.1/src/exe/rbdock.cxx#4 $)

>  <Rbt.Library>
libRbt.so (2013.1, Build901 2013/11/27)

>  <Rbt.Parameter_File>
/export/apps/rDock/src/rDock_2013.1_src/data/scripts/dock_solv.prm

>  <Rbt.Receptor>
prm/blind_docking_20.prm

>  <SCORE>
-20.9792

>  <SCORE.INTER>
-21.6978

>  <SCORE.INTER.CONST>
1

>  <SCORE.INTER.POLAR>
-2.3742

>  <SCORE.INTER.ROT>
10

>  <SCORE.INTER.SOLV>
7.68451

>  <SCORE.INTER.VDW>
-19.3794

>  <SCORE.INTER.norm>
-0.723261

>  <SCORE.INTRA>
-0.687571

>  <SCORE.INTRA.DIHEDRAL>
2.43728

>  <SCORE.INTRA.DIHEDRAL.0>
18.0451

>  <SCORE.INTRA.POLAR>
-0.439344

>  <SCORE.INTRA.POLAR.0>
-0.196815

>  <SCORE.INTRA.REPUL>
0

>  <SCORE.INTRA.REPUL.0>
0

>  <SCORE.INTRA.SOLV>
0.803996

>  <SCORE.INTRA.SOLV.lig_0>
-14.7906

>  <SCORE.INTRA.VDW>
-0.814442

>  <SCORE.INTRA.VDW.0>
-0.411701

>  <SCORE.INTRA.norm>
-0.022919

>  <SCORE.RESTR>
1.40619

>  <SCORE.RESTR.CAVITY>
1.40619

>  <SCORE.RESTR.norm>
0.046873

>  <SCORE.SYSTEM>
0

>  <SCORE.SYSTEM.CONST>
0

>  <SCORE.SYSTEM.DIHEDRAL>
0

>  <SCORE.SYSTEM.SOLV>
0

>  <SCORE.SYSTEM.norm>
0

>  <SCORE.heavy>
30

>  <SCORE.norm>
-0.699307

>  <RMSD>
19.341

$$$$
1uts_lig
 OpenBabel11021811413D
libRbt.so/2013.1/901 2013/11/27
 30 33  0  0  0  0  0  0  0  0999 V2000
   -5.5450  -14.2815    4.2385 N   0  0  0  0  0  0  0  0  0  0  0  0
   -6.3328  -11.9560    4.1463 C   0  0  0  0  0  0  0  0  0  0  0  0
   -7.0159   -9.2275    6.8703 C   0  0  0  0  0  0  0  0  0  0  0  0
   -7.5932  -11.1202    4.3871 C   0  0  0  0  0  0  0  0  0  0  0  0
   -8.2450  -11.5750    5.5821 O   0  0  0  0  0  0  0  0  0  0  0  0
   -6.7201  -13.4245    3.9628 C   0  0  0  0  0  0  0  0  0  0  0  0
   -6.5829   -7.9539    6.2517 N   0  0  0  0  0  0  0  0  0  0  0  0
   -6.6732   -8.0600    4.7713 C   0  0  0  0  0  0  0  0  0  0  0  0
   -8.1403   -8.1841    4.3496 C   0  0  0  0  0  0  0  0  0  0  0  0
   -8.6639   -6.8475    3.9889 N   0  0  0  0  0  0  0  0  0  0  0  0
   -8.7590   -6.0079    5.2176 C   0  0  0  0  0  0  0  0  0  0  0  0
  -10.0047   -6.9964    3.3557 C   0  0  0  0  0  0  0  0  0  0  0  0
   -9.3062   -4.6199    4.8474 C   0  0  0  0  0  0  0  0  0  0  0  0
  -10.5554   -5.6068    2.9879 C   0  0  0  0  0  0  0  0  0  0  0  0
  -10.6478   -4.7681    4.2152 N   0  0  0  0  0  0  0  0  0  0  0  0
  -11.3630   -9.6713    6.5233 C   0  0  0  0  0  0  0  0  0  0  0  0
  -14.0506   -4.4506    9.2747 N   0  0  0  0  0  0  0  0  0  0  0  0
  -10.8126   -8.5364    7.1655 C   0  0  0  0  0  0  0  0  0  0  0  0
   -9.4031   -8.3991    7.2750 C   0  0  0  0  0  0  0  0  0  0  0  0
   -8.5430   -9.3963    6.7387 C   0  0  0  0  0  0  0  0  0  0  0  0
   -9.1005  -10.5479    6.1059 C   0  0  0  0  0  0  0  0  0  0  0  0
  -10.5121  -10.6785    5.9965 C   0  0  0  0  0  0  0  0  0  0  0  0
  -13.0130   -3.5335    9.5574 C   0  0  0  0  0  0  0  0  0  0  0  0
  -11.7531   -4.0746    9.2146 C   0  0  0  0  0  0  0  0  0  0  0  0
  -11.1313   -6.3362    8.1838 C   0  0  0  0  0  0  0  0  0  0  0  0
  -11.6669   -7.5580    7.6931 C   0  0  0  0  0  0  0  0  0  0  0  0
  -13.0705   -7.7830    7.7320 C   0  0  0  0  0  0  0  0  0  0  0  0
  -13.9363   -6.7866    8.2586 C   0  0  0  0  0  0  0  0  0  0  0  0
  -13.3957   -5.5528    8.7386 C   0  0  0  0  0  0  0  0  0  0  0  0
  -12.0073   -5.3287    8.7016 C   0  0  0  0  0  0  0  0  0  0  0  0
  1  6  1  0  0  0  0
  2  4  1  0  0  0  0
  3  7  1  0  0  0  0
  4  5  1  0  0  0  0
  6  2  1  0  0  0  0
  7  8  1  0  0  0  0
  8  9  1  0  0  0  0
  9 10  1  0  0  0  0
 10 11  1  0  0  0  0
 10 12  1  0  0  0  0
 11 13  1  0  0  0  0
 13 15  1  0  0  0  0
 14 12  1  0  0  0  0
 15 14  1  0  0  0  0
 16 18  2  0  0  0  0
 16 22  1  0  0  0  0
 17 23  1  0  0  0  0
 17 29  1  0  0  0  0
 18 19  1  0  0  0  0
 18 26  1  0  0  0  0
 19 20  2  0  0  0  0
 20  3  1  0  0  0  0
 20 21  1  0  0  0  0
 21  5  1  0  0  0  0
 21 22  2  0  0  0  0
 23 24  2  0  0  0  0
 24 30  1  0  0  0  0
 25 26  2  0  0  0  0
 25 30  1  0  0  0  0
 26 27  1  0  0  0  0
 27 28  2  0  0  0  0
 28 29  1  0  0  0  0
 29 30  2  0  0  0  0
M  END
>  <CHROM.1>
71.82386902,61.05709849,-72.17091206,158.48951016,-158.83537879,66.82455041
95.63627011,-68.84017183,-171.85124137,-57.47297325,-72.74325849,-9.70479862
-8.02899983,6.11731480,0.54767564,-0.78116322,2.77517972

>  <Name>
1uts_lig

>  <RI>
0

>  <Rbt.Current_Directory>
/home/itssahil/PROJECTS/Mol_Feturizer/New_Systems/rnas/1uts

>  <Rbt.Executable>
rbdock ($Id: //depot/dev/client3/rdock/2013.1/src/exe/rbdock.cxx#4 $)

>  <Rbt.Library>
libRbt.so (2013.1, Build901 2013/11/27)

>  <Rbt.Parameter_File>
/export/apps/rDock/src/rDock_2013.1_src/data/scripts/dock_solv.prm

>  <Rbt.Receptor>
prm/blind_docking_20.prm

>  <SCORE>
-19.2024

>  <SCORE.INTER>
-24.2602

>  <SCORE.INTER.CONST>
1

>  <SCORE.INTER.POLAR>
-2.79374

>  <SCORE.INTER.ROT>
10

>  <SCORE.INTER.SOLV>
7.35195

>  <SCORE.INTER.VDW>
-19.5783

>  <SCORE.INTER.norm>
-0.808672

>  <SCORE.INTRA>
3.18476

>  <SCORE.INTRA.DIHEDRAL>
-4.68419

>  <SCORE.INTRA.DIHEDRAL.0>
18.0451

>  <SCORE.INTRA.POLAR>
0.196815

>  <SCORE.INTRA.POLAR.0>
-0.196815

>  <SCORE.INTRA.REPUL>
0

>  <SCORE.INTRA.REPUL.0>
0

>  <SCORE.INTRA.SOLV>
0.0193158

>  <SCORE.INTRA.SOLV.lig_0>
-14.7906

>  <SCORE.INTRA.VDW>
4.84803

>  <SCORE.INTRA.VDW.0>
-0.411701

>  <SCORE.INTRA.norm>
0.106159

>  <SCORE.RESTR>
1.87306

>  <SCORE.RESTR.CAVITY>
1.87306

>  <SCORE.RESTR.norm>
0.0624353

>  <SCORE.SYSTEM>
0

>  <SCORE.SYSTEM.CONST>
0

>  <SCORE.SYSTEM.DIHEDRAL>
0

>  <SCORE.SYSTEM.SOLV>
0

>  <SCORE.SYSTEM.norm>
0

>  <SCORE.heavy>
30

>  <SCORE.norm>
-0.640079

>  <RMSD>
19.433

$$$$
1uts_lig
 OpenBabel11021811413D
libRbt.so/2013.1/901 2013/11/27
 30 33  0  0  0  0  0  0  0  0999 V2000
   -7.1915   -9.9389   -0.8743 N   0  0  0  0  0  0  0  0  0  0  0  0
   -6.5452   -8.4549    0.9743 C   0  0  0  0  0  0  0  0  0  0  0  0
   -9.4464   -9.8715    3.8316 C   0  0  0  0  0  0  0  0  0  0  0  0
   -6.8453   -8.0911    2.4313 C   0  0  0  0  0  0  0  0  0  0  0  0
   -6.6252   -9.2393    3.2638 O   0  0  0  0  0  0  0  0  0  0  0  0
   -7.5677   -9.4809    0.4822 C   0  0  0  0  0  0  0  0  0  0  0  0
  -10.5970   -8.9638    3.6211 N   0  0  0  0  0  0  0  0  0  0  0  0
  -10.1253   -7.6885    3.0195 C   0  0  0  0  0  0  0  0  0  0  0  0
   -9.5889   -6.7652    4.1173 C   0  0  0  0  0  0  0  0  0  0  0  0
  -10.7074   -6.3255    4.9813 N   0  0  0  0  0  0  0  0  0  0  0  0
  -11.3499   -5.1215    4.3802 C   0  0  0  0  0  0  0  0  0  0  0  0
  -10.1871   -6.0126    6.3422 C   0  0  0  0  0  0  0  0  0  0  0  0
  -12.5099   -4.6595    5.2769 C   0  0  0  0  0  0  0  0  0  0  0  0
  -11.3472   -5.5463    7.2401 C   0  0  0  0  0  0  0  0  0  0  0  0
  -11.9899   -4.3452    6.6379 N   0  0  0  0  0  0  0  0  0  0  0  0
   -6.7776   -8.2239    6.8939 C   0  0  0  0  0  0  0  0  0  0  0  0
  -10.2945   -7.4175   12.2801 N   0  0  0  0  0  0  0  0  0  0  0  0
   -8.1316   -8.4972    7.2024 C   0  0  0  0  0  0  0  0  0  0  0  0
   -8.9911   -9.0306    6.2053 C   0  0  0  0  0  0  0  0  0  0  0  0
   -8.4950   -9.2939    4.8989 C   0  0  0  0  0  0  0  0  0  0  0  0
   -7.1335   -9.0023    4.5854 C   0  0  0  0  0  0  0  0  0  0  0  0
   -6.2770   -8.4713    5.5884 C   0  0  0  0  0  0  0  0  0  0  0  0
  -11.5650   -6.9817   11.8400 C   0  0  0  0  0  0  0  0  0  0  0  0
  -11.6474   -7.0080   10.4293 C   0  0  0  0  0  0  0  0  0  0  0  0
   -9.9290   -7.7241    8.6690 C   0  0  0  0  0  0  0  0  0  0  0  0
   -8.6140   -8.2337    8.4921 C   0  0  0  0  0  0  0  0  0  0  0  0
   -7.7916   -8.4821    9.6254 C   0  0  0  0  0  0  0  0  0  0  0  0
   -8.2851   -8.2232   10.9327 C   0  0  0  0  0  0  0  0  0  0  0  0
   -9.6135   -7.7237   11.1081 C   0  0  0  0  0  0  0  0  0  0  0  0
  -10.4283   -7.4767    9.9881 C   0  0  0  0  0  0  0  0  0  0  0  0
  1  6  1  0  0  0  0
  2  4  1  0  0  0  0
  3  7  1  0  0  0  0
  4  5  1  0  0  0  0
  6  2  1  0  0  0  0
  7  8  1  0  0  0  0
  8  9  1  0  0  0  0
  9 10  1  0  0  0  0
 10 11  1  0  0  0  0
 10 12  1  0  0  0  0
 11 13  1  0  0  0  0
 13 15  1  0  0  0  0
 14 12  1  0  0  0  0
 15 14  1  0  0  0  0
 16 18  2  0  0  0  0
 16 22  1  0  0  0  0
 17 23  1  0  0  0  0
 17 29  1  0  0  0  0
 18 19  1  0  0  0  0
 18 26  1  0  0  0  0
 19 20  2  0  0  0  0
 20  3  1  0  0  0  0
 20 21  1  0  0  0  0
 21  5  1  0  0  0  0
 21 22  2  0  0  0  0
 23 24  2  0  0  0  0
 24 30  1  0  0  0  0
 25 26  2  0  0  0  0
 25 30  1  0  0  0  0
 26 27  1  0  0  0  0
 27 28  2  0  0  0  0
 28 29  1  0  0  0  0
 29 30  2  0  0  0  0
M  END
>  <CHROM.1>
174.85360891,66.22799082,66.34235969,-169.27118827,-173.99297440,-82.31835046
-67.92062795,-85.94081464,142.33307302,58.68892184,87.77665081,-9.24254420
-7.72859835,5.99046200,-1.18566250,-0.67847273,1.60700918

>  <Name>
1uts_lig

>  <RI>
0

>  <Rbt.Current_Directory>
/home/itssahil/PROJECTS/Mol_Feturizer/New_Systems/rnas/1uts

>  <Rbt.Executable>
rbdock ($Id: //depot/dev/client3/rdock/2013.1/src/exe/rbdock.cxx#4 $)

>  <Rbt.Library>
libRbt.so (2013.1, Build901 2013/11/27)

>  <Rbt.Parameter_File>
/export/apps/rDock/src/rDock_2013.1_src/data/scripts/dock_solv.prm

>  <Rbt.Receptor>
prm/blind_docking_20.prm

>  <SCORE>
-3.60228

>  <SCORE.INTER>
-7.95085

>  <SCORE.INTER.CONST>
1

>  <SCORE.INTER.POLAR>
-0.774597

>  <SCORE.INTER.ROT>
10

>  <SCORE.INTER.SOLV>
6.1018

>  <SCORE.INTER.VDW>
-15.0192

>  <SCORE.INTER.norm>
-0.265028

>  <SCORE.INTRA>
-1.46328

>  <SCORE.INTRA.DIHEDRAL>
-6.95233

>  <SCORE.INTRA.DIHEDRAL.0>
18.0451

>  <SCORE.INTRA.POLAR>
0.196815

>  <SCORE.INTRA.POLAR.0>
-0.196815

>  <SCORE.INTRA.REPUL>
0.00279439

>  <SCORE.INTRA.REPUL.0>
0

>  <SCORE.INTRA.SOLV>
0.100458

>  <SCORE.INTRA.SOLV.lig_0>
-14.7906

>  <SCORE.INTRA.VDW>
1.27951

>  <SCORE.INTRA.VDW.0>
-0.411701

>  <SCORE.INTRA.norm>
-0.0487759

>  <SCORE.RESTR>
5.81185

>  <SCORE.RESTR.CAVITY>
5.81185

>  <SCORE.RESTR.norm>
0.193728

>  <SCORE.SYSTEM>
0

>  <SCORE.SYSTEM.CONST>
0

>  <SCORE.SYSTEM.DIHEDRAL>
0

>  <SCORE.SYSTEM.SOLV>
0

>  <SCORE.SYSTEM.norm>
0

>  <SCORE.heavy>
30

>  <SCORE.norm>
-0.120076

>  <RMSD>
19.497

$$$$
1uts_lig
 OpenBabel11021811413D
libRbt.so/2013.1/901 2013/11/27
 30 33  0  0  0  0  0  0  0  0999 V2000
   -4.7872  -12.0106    2.1705 N   0  0  0  0  0  0  0  0  0  0  0  0
   -5.7901  -13.5093    3.8394 C   0  0  0  0  0  0  0  0  0  0  0  0
   -9.3374  -11.0148    4.2627 C   0  0  0  0  0  0  0  0  0  0  0  0
   -6.8237  -12.6150    4.5300 C   0  0  0  0  0  0  0  0  0  0  0  0
   -6.4053  -11.2452    4.4383 O   0  0  0  0  0  0  0  0  0  0  0  0
   -5.7138  -13.1503    2.3543 C   0  0  0  0  0  0  0  0  0  0  0  0
  -10.1730  -10.0341    3.5334 N   0  0  0  0  0  0  0  0  0  0  0  0
   -9.3315   -9.2791    2.5676 C   0  0  0  0  0  0  0  0  0  0  0  0
   -8.3616   -8.3690    3.3268 C   0  0  0  0  0  0  0  0  0  0  0  0
   -9.1299   -7.3949    4.1342 N   0  0  0  0  0  0  0  0  0  0  0  0
   -9.9450   -6.5373    3.2264 C   0  0  0  0  0  0  0  0  0  0  0  0
   -8.1867   -6.5600    4.9304 C   0  0  0  0  0  0  0  0  0  0  0  0
  -10.7416   -5.5216    4.0613 C   0  0  0  0  0  0  0  0  0  0  0  0
   -8.9830   -5.5400    5.7641 C   0  0  0  0  0  0  0  0  0  0  0  0
   -9.7987   -4.6854    4.8570 N   0  0  0  0  0  0  0  0  0  0  0  0
   -7.0352   -8.9850    7.3923 C   0  0  0  0  0  0  0  0  0  0  0  0
  -11.2476   -5.5946   10.9731 N   0  0  0  0  0  0  0  0  0  0  0  0
   -8.4412   -8.8341    7.3321 C   0  0  0  0  0  0  0  0  0  0  0  0
   -9.1811   -9.4943    6.3151 C   0  0  0  0  0  0  0  0  0  0  0  0
   -8.5143  -10.3088    5.3591 C   0  0  0  0  0  0  0  0  0  0  0  0
   -7.0947  -10.4465    5.4119 C   0  0  0  0  0  0  0  0  0  0  0  0
   -6.3596   -9.7857    6.4340 C   0  0  0  0  0  0  0  0  0  0  0  0
  -12.3069   -5.2367   10.1085 C   0  0  0  0  0  0  0  0  0  0  0  0
  -12.1326   -5.8141    8.8302 C   0  0  0  0  0  0  0  0  0  0  0  0
  -10.2926   -7.3524    7.9292 C   0  0  0  0  0  0  0  0  0  0  0  0
   -9.0915   -8.0282    8.2772 C   0  0  0  0  0  0  0  0  0  0  0  0
   -8.5550   -7.8911    9.5870 C   0  0  0  0  0  0  0  0  0  0  0  0
   -9.2201   -7.0813   10.5469 C   0  0  0  0  0  0  0  0  0  0  0  0
  -10.4357   -6.4137   10.1979 C   0  0  0  0  0  0  0  0  0  0  0  0
  -10.9677   -6.5478    8.9024 C   0  0  0  0  0  0  0  0  0  0  0  0
  1  6  1  0  0  0  0
  2  4  1  0  0  0  0
  3  7  1  0  0  0  0
  4  5  1  0  0  0  0
  6  2  1  0  0  0  0
  7  8  1  0  0  0  0
  8  9  1  0  0  0  0
  9 10  1  0  0  0  0
 10 11  1  0  0  0  0
 10 12  1  0  0  0  0
 11 13  1  0  0  0  0
 13 15  1  0  0  0  0
 14 12  1  0  0  0  0
 15 14  1  0  0  0  0
 16 18  2  0  0  0  0
 16 22  1  0  0  0  0
 17 23  1  0  0  0  0
 17 29  1  0  0  0  0
 18 19  1  0  0  0  0
 18 26  1  0  0  0  0
 19 20  2  0  0  0  0
 20  3  1  0  0  0  0
 20 21  1  0  0  0  0
 21  5  1  0  0  0  0
 21 22  2  0  0  0  0
 23 24  2  0  0  0  0
 24 30  1  0  0  0  0
 25 26  2  0  0  0  0
 25 30  1  0  0  0  0
 26 27  1  0  0  0  0
 27 28  2  0  0  0  0
 28 29  1  0  0  0  0
 29 30  2  0  0  0  0
M  END
>  <CHROM.1>
-179.04937389,-62.43054649,77.57010870,-161.64421152,84.68908965,-68.70096293
-61.27933626,-62.13772029,150.21877305,53.71976774,-62.64389131,-8.77277462
-8.54066215,5.91926095,-0.61595181,-0.97265896,1.63516270

>  <Name>
1uts_lig

>  <RI>
0

>  <Rbt.Current_Directory>
/home/itssahil/PROJECTS/Mol_Feturizer/New_Systems/rnas/1uts

>  <Rbt.Executable>
rbdock ($Id: //depot/dev/client3/rdock/2013.1/src/exe/rbdock.cxx#4 $)

>  <Rbt.Library>
libRbt.so (2013.1, Build901 2013/11/27)

>  <Rbt.Parameter_File>
/export/apps/rDock/src/rDock_2013.1_src/data/scripts/dock_solv.prm

>  <Rbt.Receptor>
prm/blind_docking_20.prm

>  <SCORE>
-13.9658

>  <SCORE.INTER>
-16.2788

>  <SCORE.INTER.CONST>
1

>  <SCORE.INTER.POLAR>
-1.06417

>  <SCORE.INTER.ROT>
10

>  <SCORE.INTER.SOLV>
7.11329

>  <SCORE.INTER.VDW>
-19.943

>  <SCORE.INTER.norm>
-0.542625

>  <SCORE.INTRA>
-1.66353

>  <SCORE.INTRA.DIHEDRAL>
-7.89116

>  <SCORE.INTRA.DIHEDRAL.0>
18.0451

>  <SCORE.INTRA.POLAR>
-0.346079

>  <SCORE.INTRA.POLAR.0>
-0.196815

>  <SCORE.INTRA.REPUL>
0

>  <SCORE.INTRA.REPUL.0>
0

>  <SCORE.INTRA.SOLV>
0.585073

>  <SCORE.INTRA.SOLV.lig_0>
-14.7906

>  <SCORE.INTRA.VDW>
3.16619

>  <SCORE.INTRA.VDW.0>
-0.411701

>  <SCORE.INTRA.norm>
-0.0554509

>  <SCORE.RESTR>
3.97645

>  <SCORE.RESTR.CAVITY>
3.97645

>  <SCORE.RESTR.norm>
0.132548

>  <SCORE.SYSTEM>
0

>  <SCORE.SYSTEM.CONST>
0

>  <SCORE.SYSTEM.DIHEDRAL>
0

>  <SCORE.SYSTEM.SOLV>
0

>  <SCORE.SYSTEM.norm>
0

>  <SCORE.heavy>
30

>  <SCORE.norm>
-0.465528

>  <RMSD>
19.523

$$$$
1uts_lig
 OpenBabel11021811413D
libRbt.so/2013.1/901 2013/11/27
 30 33  0  0  0  0  0  0  0  0999 V2000
   -4.2780  -11.8409    3.6823 N   0  0  0  0  0  0  0  0  0  0  0  0
   -6.6711  -12.3776    3.8316 C   0  0  0  0  0  0  0  0  0  0  0  0
   -6.6228   -9.5715    6.3863 C   0  0  0  0  0  0  0  0  0  0  0  0
   -7.9858  -11.8370    4.4013 C   0  0  0  0  0  0  0  0  0  0  0  0
   -8.1391  -10.4613    4.0220 O   0  0  0  0  0  0  0  0  0  0  0  0
   -5.4928  -11.6792    4.5127 C   0  0  0  0  0  0  0  0  0  0  0  0
   -5.8301   -8.3609    6.0730 N   0  0  0  0  0  0  0  0  0  0  0  0
   -5.6335   -8.2576    4.6028 C   0  0  0  0  0  0  0  0  0  0  0  0
   -6.8213   -7.5253    3.9716 C   0  0  0  0  0  0  0  0  0  0  0  0
   -7.3607   -8.3329    2.8546 N   0  0  0  0  0  0  0  0  0  0  0  0
   -6.5371   -8.0971    1.6339 C   0  0  0  0  0  0  0  0  0  0  0  0
   -8.7792   -7.9489    2.6071 C   0  0  0  0  0  0  0  0  0  0  0  0
   -7.0969   -8.9314    0.4704 C   0  0  0  0  0  0  0  0  0  0  0  0
   -9.3396   -8.7811    1.4397 C   0  0  0  0  0  0  0  0  0  0  0  0
   -8.5152   -8.5469    0.2216 N   0  0  0  0  0  0  0  0  0  0  0  0
  -10.9044   -8.7489    5.9331 C   0  0  0  0  0  0  0  0  0  0  0  0
  -13.1993   -5.5291   10.9585 N   0  0  0  0  0  0  0  0  0  0  0  0
  -10.2162   -8.3197    7.0930 C   0  0  0  0  0  0  0  0  0  0  0  0
   -8.8289   -8.5899    7.2338 C   0  0  0  0  0  0  0  0  0  0  0  0
   -8.1284   -9.2876    6.2118 C   0  0  0  0  0  0  0  0  0  0  0  0
   -8.8278   -9.7338    5.0504 C   0  0  0  0  0  0  0  0  0  0  0  0
  -10.2158   -9.4577    4.9136 C   0  0  0  0  0  0  0  0  0  0  0  0
  -14.1693   -4.9960   10.0795 C   0  0  0  0  0  0  0  0  0  0  0  0
  -13.9097   -5.3838    8.7454 C   0  0  0  0  0  0  0  0  0  0  0  0
  -12.0569   -6.8567    7.7647 C   0  0  0  0  0  0  0  0  0  0  0  0
  -10.9140   -7.6337    8.0971 C   0  0  0  0  0  0  0  0  0  0  0  0
  -10.4840   -7.7193    9.4499 C   0  0  0  0  0  0  0  0  0  0  0  0
  -11.1976   -7.0309   10.4680 C   0  0  0  0  0  0  0  0  0  0  0  0
  -12.3552   -6.2614   10.1323 C   0  0  0  0  0  0  0  0  0  0  0  0
  -12.7817   -6.1749    8.7944 C   0  0  0  0  0  0  0  0  0  0  0  0
  1  6  1  0  0  0  0
  2  4  1  0  0  0  0
  3  7  1  0  0  0  0
  4  5  1  0  0  0  0
  6  2  1  0  0  0  0
  7  8  1  0  0  0  0
  8  9  1  0  0  0  0
  9 10  1  0  0  0  0
 10 11  1  0  0  0  0
 10 12  1  0  0  0  0
 11 13  1  0  0  0  0
 13 15  1  0  0  0  0
 14 12  1  0  0  0  0
 15 14  1  0  0  0  0
 16 18  2  0  0  0  0
 16 22  1  0  0  0  0
 17 23  1  0  0  0  0
 17 29  1  0  0  0  0
 18 19  1  0  0  0  0
 18 26  1  0  0  0  0
 19 20  2  0  0  0  0
 20  3  1  0  0  0  0
 20 21  1  0  0  0  0
 21  5  1  0  0  0  0
 21 22  2  0  0  0  0
 23 24  2  0  0  0  0
 24 30  1  0  0  0  0
 25 26  2  0  0  0  0
 25 30  1  0  0  0  0
 26 27  1  0  0  0  0
 27 28  2  0  0  0  0
 28 29  1  0  0  0  0
 29 30  2  0  0  0  0
M  END
>  <CHROM.1>
-75.77383404,66.91583844,-82.65387729,-147.00407367,-161.03021417,86.70532508
-128.09819724,-81.91179289,-28.23892807,-78.99848609,79.76273525,-8.96614391
-8.54067380,5.57972763,-0.70991427,-0.63163828,1.67399930

>  <Name>
1uts_lig

>  <RI>
0

>  <Rbt.Current_Directory>
/home/itssahil/PROJECTS/Mol_Feturizer/New_Systems/rnas/1uts

>  <Rbt.Executable>
rbdock ($Id: //depot/dev/client3/rdock/2013.1/src/exe/rbdock.cxx#4 $)

>  <Rbt.Library>
libRbt.so (2013.1, Build901 2013/11/27)

>  <Rbt.Parameter_File>
/export/apps/rDock/src/rDock_2013.1_src/data/scripts/dock_solv.prm

>  <Rbt.Receptor>
prm/blind_docking_20.prm

>  <SCORE>
-17.4935

>  <SCORE.INTER>
-19.1372

>  <SCORE.INTER.CONST>
1

>  <SCORE.INTER.POLAR>
-2.73834

>  <SCORE.INTER.ROT>
10

>  <SCORE.INTER.SOLV>
10.0884

>  <SCORE.INTER.VDW>
-17.2598

>  <SCORE.INTER.norm>
-0.637906

>  <SCORE.INTRA>
-0.699393

>  <SCORE.INTRA.DIHEDRAL>
3.57999

>  <SCORE.INTRA.DIHEDRAL.0>
18.0451

>  <SCORE.INTRA.POLAR>
-0.607391

>  <SCORE.INTRA.POLAR.0>
-0.196815

>  <SCORE.INTRA.REPUL>
0

>  <SCORE.INTRA.REPUL.0>
0

>  <SCORE.INTRA.SOLV>
0.554319

>  <SCORE.INTRA.SOLV.lig_0>
-14.7906

>  <SCORE.INTRA.VDW>
-0.701416

>  <SCORE.INTRA.VDW.0>
-0.411701

>  <SCORE.INTRA.norm>
-0.0233131

>  <SCORE.RESTR>
2.34303

>  <SCORE.RESTR.CAVITY>
2.34303

>  <SCORE.RESTR.norm>
0.078101

>  <SCORE.SYSTEM>
0

>  <SCORE.SYSTEM.CONST>
0

>  <SCORE.SYSTEM.DIHEDRAL>
0

>  <SCORE.SYSTEM.SOLV>
0

>  <SCORE.SYSTEM.norm>
0

>  <SCORE.heavy>
30

>  <SCORE.norm>
-0.583118

>  <RMSD>
19.570

$$$$
1uts_lig
 OpenBabel11021811413D
libRbt.so/2013.1/901 2013/11/27
 30 33  0  0  0  0  0  0  0  0999 V2000
  -16.5228   16.2413   14.9175 N   0  0  0  0  0  0  0  0  0  0  0  0
  -14.7737   17.4906   13.7270 C   0  0  0  0  0  0  0  0  0  0  0  0
  -11.9150   19.4388   17.7795 C   0  0  0  0  0  0  0  0  0  0  0  0
  -13.3862   18.0941   13.9631 C   0  0  0  0  0  0  0  0  0  0  0  0
  -13.2297   18.3972   15.3571 O   0  0  0  0  0  0  0  0  0  0  0  0
  -15.0601   16.4332   14.7947 C   0  0  0  0  0  0  0  0  0  0  0  0
  -10.5939   19.9618   18.1957 N   0  0  0  0  0  0  0  0  0  0  0  0
   -9.8348   18.8978   18.9047 C   0  0  0  0  0  0  0  0  0  0  0  0
   -8.8510   19.5335   19.8914 C   0  0  0  0  0  0  0  0  0  0  0  0
   -8.2334   18.4754   20.7220 N   0  0  0  0  0  0  0  0  0  0  0  0
   -7.3903   17.6002   19.8577 C   0  0  0  0  0  0  0  0  0  0  0  0
   -9.3048   17.6773   21.3824 C   0  0  0  0  0  0  0  0  0  0  0  0
   -6.7502   16.4975   20.7164 C   0  0  0  0  0  0  0  0  0  0  0  0
   -8.6650   16.5703   22.2397 C   0  0  0  0  0  0  0  0  0  0  0  0
   -7.8212   15.6981   21.3762 N   0  0  0  0  0  0  0  0  0  0  0  0
  -13.7060   22.0960   14.7885 C   0  0  0  0  0  0  0  0  0  0  0  0
  -13.0931   28.1731   16.9311 N   0  0  0  0  0  0  0  0  0  0  0  0
  -13.0994   22.6359   15.9477 C   0  0  0  0  0  0  0  0  0  0  0  0
  -12.5214   21.7691   16.9132 C   0  0  0  0  0  0  0  0  0  0  0  0
  -12.5472   20.3610   16.7175 C   0  0  0  0  0  0  0  0  0  0  0  0
  -13.1738   19.8179   15.5558 C   0  0  0  0  0  0  0  0  0  0  0  0
  -13.7481   20.6905   14.5912 C   0  0  0  0  0  0  0  0  0  0  0  0
  -13.7849   28.1327   18.1630 C   0  0  0  0  0  0  0  0  0  0  0  0
  -14.1352   26.8062   18.5025 C   0  0  0  0  0  0  0  0  0  0  0  0
  -13.6877   24.5969   17.2849 C   0  0  0  0  0  0  0  0  0  0  0  0
  -13.0791   24.0252   16.1345 C   0  0  0  0  0  0  0  0  0  0  0  0
  -12.4439   24.8640   15.1778 C   0  0  0  0  0  0  0  0  0  0  0  0
  -12.4160   26.2713   15.3730 C   0  0  0  0  0  0  0  0  0  0  0  0
  -13.0170   26.8422   16.5383 C   0  0  0  0  0  0  0  0  0  0  0  0
  -13.6463   26.0141   17.4856 C   0  0  0  0  0  0  0  0  0  0  0  0
  1  6  1  0  0  0  0
  2  4  1  0  0  0  0
  3  7  1  0  0  0  0
  4  5  1  0  0  0  0
  6  2  1  0  0  0  0
  7  8  1  0  0  0  0
  8  9  1  0  0  0  0
  9 10  1  0  0  0  0
 10 11  1  0  0  0  0
 10 12  1  0  0  0  0
 11 13  1  0  0  0  0
 13 15  1  0  0  0  0
 14 12  1  0  0  0  0
 15 14  1  0  0  0  0
 16 18  2  0  0  0  0
 16 22  1  0  0  0  0
 17 23  1  0  0  0  0
 17 29  1  0  0  0  0
 18 19  1  0  0  0  0
 18 26  1  0  0  0  0
 19 20  2  0  0  0  0
 20  3  1  0  0  0  0
 20 21  1  0  0  0  0
 21  5  1  0  0  0  0
 21 22  2  0  0  0  0
 23 24  2  0  0  0  0
 24 30  1  0  0  0  0
 25 26  2  0  0  0  0
 25 30  1  0  0  0  0
 26 27  1  0  0  0  0
 27 28  2  0  0  0  0
 28 29  1  0  0  0  0
 29 30  2  0  0  0  0
M  END
>  <CHROM.1>
-75.69456682,-45.55666732,-163.96749124,-111.99516918,157.70661766,-152.64843669
172.35157813,65.88274238,120.82913995,-45.24546004,-156.73602050,-11.96198138
20.80545900,17.38156898,0.91410432,0.78363433,-3.03477990

>  <Name>
1uts_lig

>  <RI>
0

>  <Rbt.Current_Directory>
/home/itssahil/PROJECTS/Mol_Feturizer/New_Systems/rnas/1uts

>  <Rbt.Executable>
rbdock ($Id: //depot/dev/client3/rdock/2013.1/src/exe/rbdock.cxx#4 $)

>  <Rbt.Library>
libRbt.so (2013.1, Build901 2013/11/27)

>  <Rbt.Parameter_File>
/export/apps/rDock/src/rDock_2013.1_src/data/scripts/dock_solv.prm

>  <Rbt.Receptor>
prm/blind_docking_40.prm

>  <SCORE>
-20.191

>  <SCORE.INTER>
-29.9559

>  <SCORE.INTER.CONST>
1

>  <SCORE.INTER.POLAR>
-3.63057

>  <SCORE.INTER.ROT>
10

>  <SCORE.INTER.SOLV>
14.2246

>  <SCORE.INTER.VDW>
-22.8769

>  <SCORE.INTER.norm>
-0.99853

>  <SCORE.INTRA>
6.63394

>  <SCORE.INTRA.DIHEDRAL>
-0.684027

>  <SCORE.INTRA.DIHEDRAL.0>
18.0451

>  <SCORE.INTRA.POLAR>
0.196815

>  <SCORE.INTRA.POLAR.0>
-0.196815

>  <SCORE.INTRA.REPUL>
0

>  <SCORE.INTRA.REPUL.0>
0

>  <SCORE.INTRA.SOLV>
-0.516375

>  <SCORE.INTRA.SOLV.lig_0>
-14.7906

>  <SCORE.INTRA.VDW>
6.56497

>  <SCORE.INTRA.VDW.0>
-0.411701

>  <SCORE.INTRA.norm>
0.221131

>  <SCORE.RESTR>
3.13096

>  <SCORE.RESTR.CAVITY>
3.13096

>  <SCORE.RESTR.norm>
0.104365

>  <SCORE.SYSTEM>
0

>  <SCORE.SYSTEM.CONST>
0

>  <SCORE.SYSTEM.DIHEDRAL>
0

>  <SCORE.SYSTEM.SOLV>
0

>  <SCORE.SYSTEM.norm>
0

>  <SCORE.heavy>
30

>  <SCORE.norm>
-0.673033

>  <RMSD>
23.016

$$$$
1uts_lig
 OpenBabel11021811413D
libRbt.so/2013.1/901 2013/11/27
 30 33  0  0  0  0  0  0  0  0999 V2000
  -15.2034   14.8076   13.3019 N   0  0  0  0  0  0  0  0  0  0  0  0
  -14.9370   16.6408   14.9161 C   0  0  0  0  0  0  0  0  0  0  0  0
  -11.9647   19.5847   17.6731 C   0  0  0  0  0  0  0  0  0  0  0  0
  -14.7357   18.1545   14.8000 C   0  0  0  0  0  0  0  0  0  0  0  0
  -13.4728   18.5128   15.3800 O   0  0  0  0  0  0  0  0  0  0  0  0
  -14.3442   15.9501   13.6866 C   0  0  0  0  0  0  0  0  0  0  0  0
  -10.4997   19.5968   17.4595 N   0  0  0  0  0  0  0  0  0  0  0  0
   -9.8026   19.6458   18.7720 C   0  0  0  0  0  0  0  0  0  0  0  0
   -9.1917   18.2769   19.0854 C   0  0  0  0  0  0  0  0  0  0  0  0
   -8.6977   18.2656   20.4807 N   0  0  0  0  0  0  0  0  0  0  0  0
   -7.4230   17.4944   20.5455 C   0  0  0  0  0  0  0  0  0  0  0  0
   -9.7258   17.6462   21.3639 C   0  0  0  0  0  0  0  0  0  0  0  0
   -6.9088   17.4773   21.9941 C   0  0  0  0  0  0  0  0  0  0  0  0
   -9.2105   17.6251   22.8142 C   0  0  0  0  0  0  0  0  0  0  0  0
   -7.9362   16.8568   22.8778 N   0  0  0  0  0  0  0  0  0  0  0  0
  -13.9466   22.2056   14.7718 C   0  0  0  0  0  0  0  0  0  0  0  0
  -13.1031   28.3157   16.7329 N   0  0  0  0  0  0  0  0  0  0  0  0
  -13.2470   22.7603   15.8701 C   0  0  0  0  0  0  0  0  0  0  0  0
  -12.6074   21.9053   16.8068 C   0  0  0  0  0  0  0  0  0  0  0  0
  -12.6650   20.4940   16.6431 C   0  0  0  0  0  0  0  0  0  0  0  0
  -13.3848   19.9363   15.5440 C   0  0  0  0  0  0  0  0  0  0  0  0
  -14.0205   20.7972   14.6078 C   0  0  0  0  0  0  0  0  0  0  0  0
  -13.7201   28.3112   18.0046 C   0  0  0  0  0  0  0  0  0  0  0  0
  -14.0681   26.9975   18.3927 C   0  0  0  0  0  0  0  0  0  0  0  0
  -13.7259   24.7571   17.1979 C   0  0  0  0  0  0  0  0  0  0  0  0
  -13.1958   24.1527   16.0256 C   0  0  0  0  0  0  0  0  0  0  0  0
  -12.6075   24.9618   15.0149 C   0  0  0  0  0  0  0  0  0  0  0  0
  -12.5479   26.3723   15.1780 C   0  0  0  0  0  0  0  0  0  0  0  0
  -13.0696   26.9761   16.3647 C   0  0  0  0  0  0  0  0  0  0  0  0
  -13.6525   26.1772   17.3655 C   0  0  0  0  0  0  0  0  0  0  0  0
  1  6  1  0  0  0  0
  2  4  1  0  0  0  0
  3  7  1  0  0  0  0
  4  5  1  0  0  0  0
  6  2  1  0  0  0  0
  7  8  1  0  0  0  0
  8  9  1  0  0  0  0
  9 10  1  0  0  0  0
 10 11  1  0  0  0  0
 10 12  1  0  0  0  0
 11 13  1  0  0  0  0
 13 15  1  0  0  0  0
 14 12  1  0  0  0  0
 15 14  1  0  0  0  0
 16 18  2  0  0  0  0
 16 22  1  0  0  0  0
 17 23  1  0  0  0  0
 17 29  1  0  0  0  0
 18 19  1  0  0  0  0
 18 26  1  0  0  0  0
 19 20  2  0  0  0  0
 20  3  1  0  0  0  0
 20 21  1  0  0  0  0
 21  5  1  0  0  0  0
 21 22  2  0  0  0  0
 23 24  2  0  0  0  0
 24 30  1  0  0  0  0
 25 26  2  0  0  0  0
 25 30  1  0  0  0  0
 26 27  1  0  0  0  0
 27 28  2  0  0  0  0
 28 29  1  0  0  0  0
 29 30  2  0  0  0  0
M  END
>  <CHROM.1>
103.60854584,-89.07320299,138.95508131,-167.67558460,-142.82791549,105.98442648
-170.67635053,-142.09045355,119.89477724,-75.67248698,146.79594253,-12.05700903
20.84292908,17.36643592,0.92013196,0.86916039,-3.01541532

>  <Name>
1uts_lig

>  <RI>
0

>  <Rbt.Current_Directory>
/home/itssahil/PROJECTS/Mol_Feturizer/New_Systems/rnas/1uts

>  <Rbt.Executable>
rbdock ($Id: //depot/dev/client3/rdock/2013.1/src/exe/rbdock.cxx#4 $)

>  <Rbt.Library>
libRbt.so (2013.1, Build901 2013/11/27)

>  <Rbt.Parameter_File>
/export/apps/rDock/src/rDock_2013.1_src/data/scripts/dock_solv.prm

>  <Rbt.Receptor>
prm/blind_docking_40.prm

>  <SCORE>
-29.6829

>  <SCORE.INTER>
-41.5064

>  <SCORE.INTER.CONST>
1

>  <SCORE.INTER.POLAR>
-3.52494

>  <SCORE.INTER.ROT>
10

>  <SCORE.INTER.SOLV>
15.3727

>  <SCORE.INTER.VDW>
-31.312

>  <SCORE.INTER.norm>
-1.38355

>  <SCORE.INTRA>
6.43012

>  <SCORE.INTRA.DIHEDRAL>
6.54322

>  <SCORE.INTRA.DIHEDRAL.0>
18.0451

>  <SCORE.INTRA.POLAR>
0.196815

>  <SCORE.INTRA.POLAR.0>
-0.196815

>  <SCORE.INTRA.REPUL>
0

>  <SCORE.INTRA.REPUL.0>
0

>  <SCORE.INTRA.SOLV>
-0.616868

>  <SCORE.INTRA.SOLV.lig_0>
-14.7906

>  <SCORE.INTRA.VDW>
2.79778

>  <SCORE.INTRA.VDW.0>
-0.411701

>  <SCORE.INTRA.norm>
0.214337

>  <SCORE.RESTR>
5.39339

>  <SCORE.RESTR.CAVITY>
5.39339

>  <SCORE.RESTR.norm>
0.17978

>  <SCORE.SYSTEM>
0

>  <SCORE.SYSTEM.CONST>
0

>  <SCORE.SYSTEM.DIHEDRAL>
0

>  <SCORE.SYSTEM.SOLV>
0

>  <SCORE.SYSTEM.norm>
0

>  <SCORE.heavy>
30

>  <SCORE.norm>
-0.989431

>  <RMSD>
23.143

$$$$
1uts_lig
 OpenBabel11021811413D
libRbt.so/2013.1/901 2013/11/27
 30 33  0  0  0  0  0  0  0  0999 V2000
  -17.6343   16.3671   15.3688 N   0  0  0  0  0  0  0  0  0  0  0  0
  -15.4546   17.5008   15.3425 C   0  0  0  0  0  0  0  0  0  0  0  0
  -12.1583   19.4511   17.7841 C   0  0  0  0  0  0  0  0  0  0  0  0
  -14.2483   17.8213   14.4551 C   0  0  0  0  0  0  0  0  0  0  0  0
  -13.1622   18.2777   15.2748 O   0  0  0  0  0  0  0  0  0  0  0  0
  -16.5764   16.9096   14.4868 C   0  0  0  0  0  0  0  0  0  0  0  0
  -10.8358   19.9811   18.1867 N   0  0  0  0  0  0  0  0  0  0  0  0
  -10.0527   18.9129   18.8625 C   0  0  0  0  0  0  0  0  0  0  0  0
   -8.9384   19.5416   19.7044 C   0  0  0  0  0  0  0  0  0  0  0  0
   -8.3273   18.5046   20.5658 N   0  0  0  0  0  0  0  0  0  0  0  0
   -7.4667   17.6166   19.7323 C   0  0  0  0  0  0  0  0  0  0  0  0
   -9.4037   17.7141   21.2271 C   0  0  0  0  0  0  0  0  0  0  0  0
   -6.8331   16.5358   20.6231 C   0  0  0  0  0  0  0  0  0  0  0  0
   -8.7704   16.6290   22.1165 C   0  0  0  0  0  0  0  0  0  0  0  0
   -7.9092   15.7440   21.2838 N   0  0  0  0  0  0  0  0  0  0  0  0
  -13.8596   21.9208   14.5871 C   0  0  0  0  0  0  0  0  0  0  0  0
  -13.7563   28.0659   16.6616 N   0  0  0  0  0  0  0  0  0  0  0  0
  -13.4048   22.5219   15.7851 C   0  0  0  0  0  0  0  0  0  0  0  0
  -12.8550   21.7157   16.8172 C   0  0  0  0  0  0  0  0  0  0  0  0
  -12.7571   20.3071   16.6498 C   0  0  0  0  0  0  0  0  0  0  0  0
  -13.2314   19.7013   15.4476 C   0  0  0  0  0  0  0  0  0  0  0  0
  -13.7779   20.5136   14.4166 C   0  0  0  0  0  0  0  0  0  0  0  0
  -13.7490   28.0204   18.0743 C   0  0  0  0  0  0  0  0  0  0  0  0
  -13.6864   26.6863   18.5365 C   0  0  0  0  0  0  0  0  0  0  0  0
  -13.5585   24.4762   17.2468 C   0  0  0  0  0  0  0  0  0  0  0  0
  -13.5059   23.9112   15.9436 C   0  0  0  0  0  0  0  0  0  0  0  0
  -13.5488   24.7578   14.8018 C   0  0  0  0  0  0  0  0  0  0  0  0
  -13.6420   26.1666   14.9639 C   0  0  0  0  0  0  0  0  0  0  0  0
  -13.6808   26.7328   16.2765 C   0  0  0  0  0  0  0  0  0  0  0  0
  -13.6390   25.8968   17.4073 C   0  0  0  0  0  0  0  0  0  0  0  0
  1  6  1  0  0  0  0
  2  4  1  0  0  0  0
  3  7  1  0  0  0  0
  4  5  1  0  0  0  0
  6  2  1  0  0  0  0
  7  8  1  0  0  0  0
  8  9  1  0  0  0  0
  9 10  1  0  0  0  0
 10 11  1  0  0  0  0
 10 12  1  0  0  0  0
 11 13  1  0  0  0  0
 13 15  1  0  0  0  0
 14 12  1  0  0  0  0
 15 14  1  0  0  0  0
 16 18  2  0  0  0  0
 16 22  1  0  0  0  0
 17 23  1  0  0  0  0
 17 29  1  0  0  0  0
 18 19  1  0  0  0  0
 18 26  1  0  0  0  0
 19 20  2  0  0  0  0
 20  3  1  0  0  0  0
 20 21  1  0  0  0  0
 21  5  1  0  0  0  0
 21 22  2  0  0  0  0
 23 24  2  0  0  0  0
 24 30  1  0  0  0  0
 25 26  2  0  0  0  0
 25 30  1  0  0  0  0
 26 27  1  0  0  0  0
 27 28  2  0  0  0  0
 28 29  1  0  0  0  0
 29 30  2  0  0  0  0
M  END
>  <CHROM.1>
160.11396659,-175.54779521,-158.33640229,-88.99170076,169.40113086,-159.95202543
169.54248018,74.24201916,155.64028235,-52.64592087,148.77821689,-12.30046497
20.76988783,17.34733780,0.89157842,0.70015715,-3.10870753

>  <Name>
1uts_lig

>  <RI>
0

>  <Rbt.Current_Directory>
/home/itssahil/PROJECTS/Mol_Feturizer/New_Systems/rnas/1uts

>  <Rbt.Executable>
rbdock ($Id: //depot/dev/client3/rdock/2013.1/src/exe/rbdock.cxx#4 $)

>  <Rbt.Library>
libRbt.so (2013.1, Build901 2013/11/27)

>  <Rbt.Parameter_File>
/export/apps/rDock/src/rDock_2013.1_src/data/scripts/dock_solv.prm

>  <Rbt.Receptor>
prm/blind_docking_40.prm

>  <SCORE>
-18.2387

>  <SCORE.INTER>
-25.5863

>  <SCORE.INTER.CONST>
1

>  <SCORE.INTER.POLAR>
-3.85909

>  <SCORE.INTER.ROT>
10

>  <SCORE.INTER.SOLV>
13.5742

>  <SCORE.INTER.VDW>
-18.9853

>  <SCORE.INTER.norm>
-0.852876

>  <SCORE.INTRA>
3.78965

>  <SCORE.INTRA.DIHEDRAL>
-7.63108

>  <SCORE.INTRA.DIHEDRAL.0>
18.0451

>  <SCORE.INTRA.POLAR>
0.196815

>  <SCORE.INTRA.POLAR.0>
-0.196815

>  <SCORE.INTRA.REPUL>
0

>  <SCORE.INTRA.REPUL.0>
0

>  <SCORE.INTRA.SOLV>
-0.650806

>  <SCORE.INTRA.SOLV.lig_0>
-14.7906

>  <SCORE.INTRA.VDW>
7.26142

>  <SCORE.INTRA.VDW.0>
-0.411701

>  <SCORE.INTRA.norm>
0.126322

>  <SCORE.RESTR>
3.5579

>  <SCORE.RESTR.CAVITY>
3.5579

>  <SCORE.RESTR.norm>
0.118597

>  <SCORE.SYSTEM>
0

>  <SCORE.SYSTEM.CONST>
0

>  <SCORE.SYSTEM.DIHEDRAL>
0

>  <SCORE.SYSTEM.SOLV>
0

>  <SCORE.SYSTEM.norm>
0

>  <SCORE.heavy>
30

>  <SCORE.norm>
-0.607958

>  <RMSD>
23.162

$$$$
1uts_lig
 OpenBabel11021811413D
libRbt.so/2013.1/901 2013/11/27
 30 33  0  0  0  0  0  0  0  0999 V2000
  -16.7191   16.0835   14.6357 N   0  0  0  0  0  0  0  0  0  0  0  0
  -15.9417   18.2225   15.5620 C   0  0  0  0  0  0  0  0  0  0  0  0
  -11.1392   19.6532   16.9526 C   0  0  0  0  0  0  0  0  0  0  0  0
  -14.5991   18.0799   14.8391 C   0  0  0  0  0  0  0  0  0  0  0  0
  -13.5373   18.4572   15.7280 O   0  0  0  0  0  0  0  0  0  0  0  0
  -16.4952   16.8349   15.8914 C   0  0  0  0  0  0  0  0  0  0  0  0
  -11.2515   19.4975   18.4207 N   0  0  0  0  0  0  0  0  0  0  0  0
  -10.2121   18.5508   18.9049 C   0  0  0  0  0  0  0  0  0  0  0  0
   -9.0805   19.3274   19.5844 C   0  0  0  0  0  0  0  0  0  0  0  0
   -8.3370   18.4230   20.4900 N   0  0  0  0  0  0  0  0  0  0  0  0
   -7.5609   17.4421   19.6780 C   0  0  0  0  0  0  0  0  0  0  0  0
   -9.2994   17.7150   21.3807 C   0  0  0  0  0  0  0  0  0  0  0  0
   -6.7903   16.4984   20.6155 C   0  0  0  0  0  0  0  0  0  0  0  0
   -8.5291   16.7669   22.3174 C   0  0  0  0  0  0  0  0  0  0  0  0
   -7.7524   15.7891   21.5057 N   0  0  0  0  0  0  0  0  0  0  0  0
  -14.4377   22.1089   15.4346 C   0  0  0  0  0  0  0  0  0  0  0  0
  -13.1724   28.3045   16.6985 N   0  0  0  0  0  0  0  0  0  0  0  0
  -13.3108   22.7219   16.0324 C   0  0  0  0  0  0  0  0  0  0  0  0
  -12.2456   21.9203   16.5227 C   0  0  0  0  0  0  0  0  0  0  0  0
  -12.3063   20.5040   16.4121 C   0  0  0  0  0  0  0  0  0  0  0  0
  -13.4509   19.8870   15.8236 C   0  0  0  0  0  0  0  0  0  0  0  0
  -14.5127   20.6947   15.3318 C   0  0  0  0  0  0  0  0  0  0  0  0
  -13.8346   28.3482   17.9464 C   0  0  0  0  0  0  0  0  0  0  0  0
  -14.2024   27.0506   18.3690 C   0  0  0  0  0  0  0  0  0  0  0  0
  -13.8279   24.7672   17.2690 C   0  0  0  0  0  0  0  0  0  0  0  0
  -13.2588   24.1189   16.1393 C   0  0  0  0  0  0  0  0  0  0  0  0
  -12.6309   24.8888   15.1219 C   0  0  0  0  0  0  0  0  0  0  0  0
  -12.5707   26.3041   15.2359 C   0  0  0  0  0  0  0  0  0  0  0  0
  -13.1318   26.9523   16.3804 C   0  0  0  0  0  0  0  0  0  0  0  0
  -13.7540   26.1922   17.3877 C   0  0  0  0  0  0  0  0  0  0  0  0
  1  6  1  0  0  0  0
  2  4  1  0  0  0  0
  3  7  1  0  0  0  0
  4  5  1  0  0  0  0
  6  2  1  0  0  0  0
  7  8  1  0  0  0  0
  8  9  1  0  0  0  0
  9 10  1  0  0  0  0
 10 11  1  0  0  0  0
 10 12  1  0  0  0  0
 11 13  1  0  0  0  0
 13 15  1  0  0  0  0
 14 12  1  0  0  0  0
 15 14  1  0  0  0  0
 16 18  2  0  0  0  0
 16 22  1  0  0  0  0
 17 23  1  0  0  0  0
 17 29  1  0  0  0  0
 18 19  1  0  0  0  0
 18 26  1  0  0  0  0
 19 20  2  0  0  0  0
 20  3  1  0  0  0  0
 20 21  1  0  0  0  0
 21  5  1  0  0  0  0
 21 22  2  0  0  0  0
 23 24  2  0  0  0  0
 24 30  1  0  0  0  0
 25 26  2  0  0  0  0
 25 30  1  0  0  0  0
 26 27  1  0  0  0  0
 27 28  2  0  0  0  0
 28 29  1  0  0  0  0
 29 30  2  0  0  0  0
M  END
>  <CHROM.1>
-58.27130058,-107.12692997,173.59076619,-77.81194718,-61.34577092,104.15766131
158.70228099,70.26919320,87.54472807,80.14979817,-166.51474300,-12.21539490
20.86364119,17.47305517,0.97708723,0.66662356,3.13859748

>  <Name>
1uts_lig

>  <RI>
0

>  <Rbt.Current_Directory>
/home/itssahil/PROJECTS/Mol_Feturizer/New_Systems/rnas/1uts

>  <Rbt.Executable>
rbdock ($Id: //depot/dev/client3/rdock/2013.1/src/exe/rbdock.cxx#4 $)

>  <Rbt.Library>
libRbt.so (2013.1, Build901 2013/11/27)

>  <Rbt.Parameter_File>
/export/apps/rDock/src/rDock_2013.1_src/data/scripts/dock_solv.prm

>  <Rbt.Receptor>
prm/blind_docking_40.prm

>  <SCORE>
-7.77622

>  <SCORE.INTER>
-19.4335

>  <SCORE.INTER.CONST>
1

>  <SCORE.INTER.POLAR>
-1.79355

>  <SCORE.INTER.ROT>
10

>  <SCORE.INTER.SOLV>
14.3107

>  <SCORE.INTER.VDW>
-22.0141

>  <SCORE.INTER.norm>
-0.647784

>  <SCORE.INTRA>
8.70269

>  <SCORE.INTRA.DIHEDRAL>
-0.966899

>  <SCORE.INTRA.DIHEDRAL.0>
18.0451

>  <SCORE.INTRA.POLAR>
0.196815

>  <SCORE.INTRA.POLAR.0>
-0.196815

>  <SCORE.INTRA.REPUL>
0

>  <SCORE.INTRA.REPUL.0>
0

>  <SCORE.INTRA.SOLV>
-0.401174

>  <SCORE.INTRA.SOLV.lig_0>
-14.7906

>  <SCORE.INTRA.VDW>
8.71756

>  <SCORE.INTRA.VDW.0>
-0.411701

>  <SCORE.INTRA.norm>
0.29009

>  <SCORE.RESTR>
2.95461

>  <SCORE.RESTR.CAVITY>
2.95461

>  <SCORE.RESTR.norm>
0.0984871

>  <SCORE.SYSTEM>
0

>  <SCORE.SYSTEM.CONST>
0

>  <SCORE.SYSTEM.DIHEDRAL>
0

>  <SCORE.SYSTEM.SOLV>
0

>  <SCORE.SYSTEM.norm>
0

>  <SCORE.heavy>
30

>  <SCORE.norm>
-0.259207

>  <RMSD>
23.195

$$$$
1uts_lig
 OpenBabel11021811413D
libRbt.so/2013.1/901 2013/11/27
 30 33  0  0  0  0  0  0  0  0999 V2000
  -17.3512   16.5552   14.9192 N   0  0  0  0  0  0  0  0  0  0  0  0
  -14.8978   16.6609   15.0020 C   0  0  0  0  0  0  0  0  0  0  0  0
  -12.2127   19.5812   17.8798 C   0  0  0  0  0  0  0  0  0  0  0  0
  -14.6887   18.1713   14.8601 C   0  0  0  0  0  0  0  0  0  0  0  0
  -13.4082   18.5277   15.4015 O   0  0  0  0  0  0  0  0  0  0  0  0
  -16.1740   16.3940   15.8022 C   0  0  0  0  0  0  0  0  0  0  0  0
  -10.8092   19.9248   18.2023 N   0  0  0  0  0  0  0  0  0  0  0  0
  -10.0985   18.7159   18.6969 C   0  0  0  0  0  0  0  0  0  0  0  0
   -8.9930   19.1283   19.6733 C   0  0  0  0  0  0  0  0  0  0  0  0
   -8.7735   18.0431   20.6557 N   0  0  0  0  0  0  0  0  0  0  0  0
   -8.3759   18.6370   21.9646 C   0  0  0  0  0  0  0  0  0  0  0  0
   -7.7081   17.1301   20.1537 C   0  0  0  0  0  0  0  0  0  0  0  0
   -8.1432   17.5125   22.9866 C   0  0  0  0  0  0  0  0  0  0  0  0
   -7.4716   16.0057   21.1781 C   0  0  0  0  0  0  0  0  0  0  0  0
   -7.0768   16.5997   22.4856 N   0  0  0  0  0  0  0  0  0  0  0  0
  -13.7254   22.2260   14.7284 C   0  0  0  0  0  0  0  0  0  0  0  0
  -13.0251   28.3256   16.7874 N   0  0  0  0  0  0  0  0  0  0  0  0
  -13.1745   22.7723   15.9122 C   0  0  0  0  0  0  0  0  0  0  0  0
  -12.6866   21.9096   16.9296 C   0  0  0  0  0  0  0  0  0  0  0  0
  -12.7468   20.4989   16.7615 C   0  0  0  0  0  0  0  0  0  0  0  0
  -13.3177   19.9500   15.5741 C   0  0  0  0  0  0  0  0  0  0  0  0
  -13.8017   20.8185   14.5577 C   0  0  0  0  0  0  0  0  0  0  0  0
  -13.6864   28.3237   18.0366 C   0  0  0  0  0  0  0  0  0  0  0  0
  -14.0563   27.0118   18.4103 C   0  0  0  0  0  0  0  0  0  0  0  0
  -13.6869   24.7706   17.2251 C   0  0  0  0  0  0  0  0  0  0  0  0
  -13.1198   24.1641   16.0714 C   0  0  0  0  0  0  0  0  0  0  0  0
  -12.4911   24.9706   15.0832 C   0  0  0  0  0  0  0  0  0  0  0  0
  -12.4281   26.3805   15.2503 C   0  0  0  0  0  0  0  0  0  0  0  0
  -12.9873   26.9863   16.4187 C   0  0  0  0  0  0  0  0  0  0  0  0
  -13.6102   26.1901   17.3972 C   0  0  0  0  0  0  0  0  0  0  0  0
  1  6  1  0  0  0  0
  2  4  1  0  0  0  0
  3  7  1  0  0  0  0
  4  5  1  0  0  0  0
  6  2  1  0  0  0  0
  7  8  1  0  0  0  0
  8  9  1  0  0  0  0
  9 10  1  0  0  0  0
 10 11  1  0  0  0  0
 10 12  1  0  0  0  0
 11 13  1  0  0  0  0
 13 15  1  0  0  0  0
 14 12  1  0  0  0  0
 15 14  1  0  0  0  0
 16 18  2  0  0  0  0
 16 22  1  0  0  0  0
 17 23  1  0  0  0  0
 17 29  1  0  0  0  0
 18 19  1  0  0  0  0
 18 26  1  0  0  0  0
 19 20  2  0  0  0  0
 20  3  1  0  0  0  0
 20 21  1  0  0  0  0
 21  5  1  0  0  0  0
 21 22  2  0  0  0  0
 23 24  2  0  0  0  0
 24 30  1  0  0  0  0
 25 26  2  0  0  0  0
 25 30  1  0  0  0  0
 26 27  1  0  0  0  0
 27 28  2  0  0  0  0
 28 29  1  0  0  0  0
 29 30  2  0  0  0  0
M  END
>  <CHROM.1>
61.51325021,122.63224061,-151.17461772,-166.28283002,79.28576154,-150.56998719
150.86060837,-147.34007424,125.88254365,-55.16551194,136.87348756,-12.11157603
20.90004610,17.56098548,0.92555847,0.73685014,3.13651621

>  <Name>
1uts_lig

>  <RI>
0

>  <Rbt.Current_Directory>
/home/itssahil/PROJECTS/Mol_Feturizer/New_Systems/rnas/1uts

>  <Rbt.Executable>
rbdock ($Id: //depot/dev/client3/rdock/2013.1/src/exe/rbdock.cxx#4 $)

>  <Rbt.Library>
libRbt.so (2013.1, Build901 2013/11/27)

>  <Rbt.Parameter_File>
/export/apps/rDock/src/rDock_2013.1_src/data/scripts/dock_solv.prm

>  <Rbt.Receptor>
prm/blind_docking_40.prm

>  <SCORE>
-21.9102

>  <SCORE.INTER>
-27.3772

>  <SCORE.INTER.CONST>
1

>  <SCORE.INTER.POLAR>
-2.02012

>  <SCORE.INTER.ROT>
10

>  <SCORE.INTER.SOLV>
13.9313

>  <SCORE.INTER.VDW>
-26.4281

>  <SCORE.INTER.norm>
-0.912573

>  <SCORE.INTRA>
3.50101

>  <SCORE.INTRA.DIHEDRAL>
3.82347

>  <SCORE.INTRA.DIHEDRAL.0>
18.0451

>  <SCORE.INTRA.POLAR>
0.196815

>  <SCORE.INTRA.POLAR.0>
-0.196815

>  <SCORE.INTRA.REPUL>
0

>  <SCORE.INTRA.REPUL.0>
0

>  <SCORE.INTRA.SOLV>
-0.577923

>  <SCORE.INTRA.SOLV.lig_0>
-14.7906

>  <SCORE.INTRA.VDW>
1.20906

>  <SCORE.INTRA.VDW.0>
-0.411701

>  <SCORE.INTRA.norm>
0.1167

>  <SCORE.RESTR>
1.96596

>  <SCORE.RESTR.CAVITY>
1.96596

>  <SCORE.RESTR.norm>
0.0655321

>  <SCORE.SYSTEM>
0

>  <SCORE.SYSTEM.CONST>
0

>  <SCORE.SYSTEM.DIHEDRAL>
0

>  <SCORE.SYSTEM.SOLV>
0

>  <SCORE.SYSTEM.norm>
0

>  <SCORE.heavy>
30

>  <SCORE.norm>
-0.730341

>  <RMSD>
23.197

$$$$
1uts_lig
 OpenBabel11021811413D
libRbt.so/2013.1/901 2013/11/27
 30 33  0  0  0  0  0  0  0  0999 V2000
  -15.7037   15.1189   13.2389 N   0  0  0  0  0  0  0  0  0  0  0  0
  -14.9256   16.6772   14.9720 C   0  0  0  0  0  0  0  0  0  0  0  0
  -12.0518   19.6383   17.9199 C   0  0  0  0  0  0  0  0  0  0  0  0
  -14.8674   18.1794   15.2639 C   0  0  0  0  0  0  0  0  0  0  0  0
  -13.5243   18.5447   15.6140 O   0  0  0  0  0  0  0  0  0  0  0  0
  -15.9973   16.4025   13.9154 C   0  0  0  0  0  0  0  0  0  0  0  0
  -10.5932   19.5437   17.6844 N   0  0  0  0  0  0  0  0  0  0  0  0
  -10.0022   18.5337   18.6018 C   0  0  0  0  0  0  0  0  0  0  0  0
   -9.0847   19.2270   19.6133 C   0  0  0  0  0  0  0  0  0  0  0  0
   -8.7476   18.2817   20.7013 N   0  0  0  0  0  0  0  0  0  0  0  0
   -8.1015   19.0278   21.8192 C   0  0  0  0  0  0  0  0  0  0  0  0
   -7.8287   17.2321   20.1769 C   0  0  0  0  0  0  0  0  0  0  0  0
   -7.7464   18.0484   22.9496 C   0  0  0  0  0  0  0  0  0  0  0  0
   -7.4694   16.2529   21.3090 C   0  0  0  0  0  0  0  0  0  0  0  0
   -6.8264   16.9992   22.4261 N   0  0  0  0  0  0  0  0  0  0  0  0
  -13.9155   22.2316   14.9172 C   0  0  0  0  0  0  0  0  0  0  0  0
  -13.0085   28.3663   16.7690 N   0  0  0  0  0  0  0  0  0  0  0  0
  -13.2321   22.7970   16.0202 C   0  0  0  0  0  0  0  0  0  0  0  0
  -12.6309   21.9509   16.9898 C   0  0  0  0  0  0  0  0  0  0  0  0
  -12.7105   20.5377   16.8544 C   0  0  0  0  0  0  0  0  0  0  0  0
  -13.4141   19.9696   15.7502 C   0  0  0  0  0  0  0  0  0  0  0  0
  -14.0114   20.8215   14.7810 C   0  0  0  0  0  0  0  0  0  0  0  0
  -13.6647   28.4010   18.0204 C   0  0  0  0  0  0  0  0  0  0  0  0
  -14.0498   27.1027   18.4251 C   0  0  0  0  0  0  0  0  0  0  0  0
  -13.7137   24.8308   17.2895 C   0  0  0  0  0  0  0  0  0  0  0  0
  -13.1590   24.1913   16.1477 C   0  0  0  0  0  0  0  0  0  0  0  0
  -12.5241   24.9671   15.1391 C   0  0  0  0  0  0  0  0  0  0  0  0
  -12.4425   26.3795   15.2740 C   0  0  0  0  0  0  0  0  0  0  0  0
  -12.9893   27.0186   16.4306 C   0  0  0  0  0  0  0  0  0  0  0  0
  -13.6183   26.2527   17.4291 C   0  0  0  0  0  0  0  0  0  0  0  0
  1  6  1  0  0  0  0
  2  4  1  0  0  0  0
  3  7  1  0  0  0  0
  4  5  1  0  0  0  0
  6  2  1  0  0  0  0
  7  8  1  0  0  0  0
  8  9  1  0  0  0  0
  9 10  1  0  0  0  0
 10 11  1  0  0  0  0
 10 12  1  0  0  0  0
 11 13  1  0  0  0  0
 13 15  1  0  0  0  0
 14 12  1  0  0  0  0
 15 14  1  0  0  0  0
 16 18  2  0  0  0  0
 16 22  1  0  0  0  0
 17 23  1  0  0  0  0
 17 29  1  0  0  0  0
 18 19  1  0  0  0  0
 18 26  1  0  0  0  0
 19 20  2  0  0  0  0
 20  3  1  0  0  0  0
 20 21  1  0  0  0  0
 21  5  1  0  0  0  0
 21 22  2  0  0  0  0
 23 24  2  0  0  0  0
 24 30  1  0  0  0  0
 25 26  2  0  0  0  0
 25 30  1  0  0  0  0
 26 27  1  0  0  0  0
 27 28  2  0  0  0  0
 28 29  1  0  0  0  0
 29 30  2  0  0  0  0
M  END
>  <CHROM.1>
64.25028353,-148.59500721,-172.42240879,173.74594993,157.12998970,-112.72976701
167.16249741,-168.18497757,119.47082210,-79.62332873,135.36183005,-12.01893802
20.90718906,17.45455463,0.88303116,0.78991646,-3.04963564

>  <Name>
1uts_lig

>  <RI>
0

>  <Rbt.Current_Directory>
/home/itssahil/PROJECTS/Mol_Feturizer/New_Systems/rnas/1uts

>  <Rbt.Executable>
rbdock ($Id: //depot/dev/client3/rdock/2013.1/src/exe/rbdock.cxx#4 $)

>  <Rbt.Library>
libRbt.so (2013.1, Build901 2013/11/27)

>  <Rbt.Parameter_File>
/export/apps/rDock/src/rDock_2013.1_src/data/scripts/dock_solv.prm

>  <Rbt.Receptor>
prm/blind_docking_40.prm

>  <SCORE>
-20.9048

>  <SCORE.INTER>
-26.3546

>  <SCORE.INTER.CONST>
1

>  <SCORE.INTER.POLAR>
-1.79097

>  <SCORE.INTER.ROT>
10

>  <SCORE.INTER.SOLV>
14.0042

>  <SCORE.INTER.VDW>
-26.5346

>  <SCORE.INTER.norm>
-0.878488

>  <SCORE.INTRA>
0.979512

>  <SCORE.INTRA.DIHEDRAL>
-1.87256

>  <SCORE.INTRA.DIHEDRAL.0>
18.0451

>  <SCORE.INTRA.POLAR>
0.196815

>  <SCORE.INTRA.POLAR.0>
-0.196815

>  <SCORE.INTRA.REPUL>
0

>  <SCORE.INTRA.REPUL.0>
0

>  <SCORE.INTRA.SOLV>
-0.647417

>  <SCORE.INTRA.SOLV.lig_0>
-14.7906

>  <SCORE.INTRA.VDW>
1.57033

>  <SCORE.INTRA.VDW.0>
-0.411701

>  <SCORE.INTRA.norm>
0.0326504

>  <SCORE.RESTR>
4.47027

>  <SCORE.RESTR.CAVITY>
4.47027

>  <SCORE.RESTR.norm>
0.149009

>  <SCORE.SYSTEM>
0

>  <SCORE.SYSTEM.CONST>
0

>  <SCORE.SYSTEM.DIHEDRAL>
0

>  <SCORE.SYSTEM.SOLV>
0

>  <SCORE.SYSTEM.norm>
0

>  <SCORE.heavy>
30

>  <SCORE.norm>
-0.696828

>  <RMSD>
23.201

$$$$
1uts_lig
 OpenBabel11021811413D
libRbt.so/2013.1/901 2013/11/27
 30 33  0  0  0  0  0  0  0  0999 V2000
  -17.0479   17.5255   15.1622 N   0  0  0  0  0  0  0  0  0  0  0  0
  -14.8370   16.7724   14.3995 C   0  0  0  0  0  0  0  0  0  0  0  0
  -12.2862   19.5593   17.8977 C   0  0  0  0  0  0  0  0  0  0  0  0
  -14.2961   18.1997   14.2742 C   0  0  0  0  0  0  0  0  0  0  0  0
  -13.4968   18.5087   15.4255 O   0  0  0  0  0  0  0  0  0  0  0  0
  -15.8664   16.7128   15.5294 C   0  0  0  0  0  0  0  0  0  0  0  0
  -10.8785   19.8887   18.2171 N   0  0  0  0  0  0  0  0  0  0  0  0
  -10.1856   18.6784   18.7331 C   0  0  0  0  0  0  0  0  0  0  0  0
   -9.0091   19.0943   19.6210 C   0  0  0  0  0  0  0  0  0  0  0  0
   -8.5553   17.9302   20.4146 N   0  0  0  0  0  0  0  0  0  0  0  0
   -9.4828   17.7265   21.5644 C   0  0  0  0  0  0  0  0  0  0  0  0
   -7.1685   18.1748   20.9021 C   0  0  0  0  0  0  0  0  0  0  0  0
   -9.0124   16.5204   22.3934 C   0  0  0  0  0  0  0  0  0  0  0  0
   -6.6977   16.9692   21.7355 C   0  0  0  0  0  0  0  0  0  0  0  0
   -7.6259   16.7650   22.8823 N   0  0  0  0  0  0  0  0  0  0  0  0
  -13.7731   22.2075   14.7369 C   0  0  0  0  0  0  0  0  0  0  0  0
  -12.9959   28.3071   16.7700 N   0  0  0  0  0  0  0  0  0  0  0  0
  -13.2145   22.7526   15.9176 C   0  0  0  0  0  0  0  0  0  0  0  0
  -12.7349   21.8888   16.9381 C   0  0  0  0  0  0  0  0  0  0  0  0
  -12.8114   20.4782   16.7762 C   0  0  0  0  0  0  0  0  0  0  0  0
  -13.3900   19.9307   15.5918 C   0  0  0  0  0  0  0  0  0  0  0  0
  -13.8655   20.8002   14.5723 C   0  0  0  0  0  0  0  0  0  0  0  0
  -13.6279   28.3151   18.0342 C   0  0  0  0  0  0  0  0  0  0  0  0
  -14.0005   27.0077   18.4210 C   0  0  0  0  0  0  0  0  0  0  0  0
  -13.6785   24.7596   17.2352 C   0  0  0  0  0  0  0  0  0  0  0  0
  -13.1438   24.1444   16.0707 C   0  0  0  0  0  0  0  0  0  0  0  0
  -12.5313   24.9421   15.0653 C   0  0  0  0  0  0  0  0  0  0  0  0
  -12.4521   26.3518   15.2261 C   0  0  0  0  0  0  0  0  0  0  0  0
  -12.9785   26.9663   16.4052 C   0  0  0  0  0  0  0  0  0  0  0  0
  -13.5854   26.1788   17.4006 C   0  0  0  0  0  0  0  0  0  0  0  0
  1  6  1  0  0  0  0
  2  4  1  0  0  0  0
  3  7  1  0  0  0  0
  4  5  1  0  0  0  0
  6  2  1  0  0  0  0
  7  8  1  0  0  0  0
  8  9  1  0  0  0  0
  9 10  1  0  0  0  0
 10 11  1  0  0  0  0
 10 12  1  0  0  0  0
 11 13  1  0  0  0  0
 13 15  1  0  0  0  0
 14 12  1  0  0  0  0
 15 14  1  0  0  0  0
 16 18  2  0  0  0  0
 16 22  1  0  0  0  0
 17 23  1  0  0  0  0
 17 29  1  0  0  0  0
 18 19  1  0  0  0  0
 18 26  1  0  0  0  0
 19 20  2  0  0  0  0
 20  3  1  0  0  0  0
 20 21  1  0  0  0  0
 21  5  1  0  0  0  0
 21 22  2  0  0  0  0
 23 24  2  0  0  0  0
 24 30  1  0  0  0  0
 25 26  2  0  0  0  0
 25 30  1  0  0  0  0
 26 27  1  0  0  0  0
 27 28  2  0  0  0  0
 28 29  1  0  0  0  0
 29 30  2  0  0  0  0
M  END
>  <CHROM.1>
-178.64912655,68.88621832,-151.92173126,-158.78558938,66.01691279,-154.83345295
164.81923801,-78.48261121,127.15129567,-55.14817517,170.70241506,-12.12785088
20.94906767,17.54099191,2.25203932,-0.77231871,0.00857670

>  <Name>
1uts_lig

>  <RI>
0

>  <Rbt.Current_Directory>
/home/itssahil/PROJECTS/Mol_Feturizer/New_Systems/rnas/1uts

>  <Rbt.Executable>
rbdock ($Id: //depot/dev/client3/rdock/2013.1/src/exe/rbdock.cxx#4 $)

>  <Rbt.Library>
libRbt.so (2013.1, Build901 2013/11/27)

>  <Rbt.Parameter_File>
/export/apps/rDock/src/rDock_2013.1_src/data/scripts/dock_solv.prm

>  <Rbt.Receptor>
prm/blind_docking_40.prm

>  <SCORE>
-27.7563

>  <SCORE.INTER>
-31.1696

>  <SCORE.INTER.CONST>
1

>  <SCORE.INTER.POLAR>
-2.14749

>  <SCORE.INTER.ROT>
10

>  <SCORE.INTER.SOLV>
13.4169

>  <SCORE.INTER.VDW>
-28.3604

>  <SCORE.INTER.norm>
-1.03899

>  <SCORE.INTRA>
0.964876

>  <SCORE.INTRA.DIHEDRAL>
-7.0967

>  <SCORE.INTRA.DIHEDRAL.0>
18.0451

>  <SCORE.INTRA.POLAR>
0.196815

>  <SCORE.INTRA.POLAR.0>
-0.196815

>  <SCORE.INTRA.REPUL>
0

>  <SCORE.INTRA.REPUL.0>
0

>  <SCORE.INTRA.SOLV>
-0.378151

>  <SCORE.INTRA.SOLV.lig_0>
-14.7906

>  <SCORE.INTRA.VDW>
4.03313

>  <SCORE.INTRA.VDW.0>
-0.411701

>  <SCORE.INTRA.norm>
0.0321625

>  <SCORE.RESTR>
2.44837

>  <SCORE.RESTR.CAVITY>
2.44837

>  <SCORE.RESTR.norm>
0.0816124

>  <SCORE.SYSTEM>
0

>  <SCORE.SYSTEM.CONST>
0

>  <SCORE.SYSTEM.DIHEDRAL>
0

>  <SCORE.SYSTEM.SOLV>
0

>  <SCORE.SYSTEM.norm>
0

>  <SCORE.heavy>
30

>  <SCORE.norm>
-0.925211

>  <RMSD>
23.220

$$$$
1uts_lig
 OpenBabel11021811413D
libRbt.so/2013.1/901 2013/11/27
 30 33  0  0  0  0  0  0  0  0999 V2000
  -17.2026   17.0565   14.1672 N   0  0  0  0  0  0  0  0  0  0  0  0
  -15.6746   18.2458   15.6798 C   0  0  0  0  0  0  0  0  0  0  0  0
  -12.1732   19.4813   17.8344 C   0  0  0  0  0  0  0  0  0  0  0  0
  -14.5191   18.0307   14.6982 C   0  0  0  0  0  0  0  0  0  0  0  0
  -13.2852   18.4117   15.3243 O   0  0  0  0  0  0  0  0  0  0  0  0
  -16.6765   17.0970   15.5503 C   0  0  0  0  0  0  0  0  0  0  0  0
  -10.7990   19.8818   18.2130 N   0  0  0  0  0  0  0  0  0  0  0  0
  -10.0761   18.7141   18.7830 C   0  0  0  0  0  0  0  0  0  0  0  0
   -8.9560   19.1996   19.7077 C   0  0  0  0  0  0  0  0  0  0  0  0
   -8.7038   18.1818   20.7524 N   0  0  0  0  0  0  0  0  0  0  0  0
   -8.1636   18.8504   21.9710 C   0  0  0  0  0  0  0  0  0  0  0  0
   -7.7328   17.1753   20.2377 C   0  0  0  0  0  0  0  0  0  0  0  0
   -7.8969   17.7957   23.0572 C   0  0  0  0  0  0  0  0  0  0  0  0
   -7.4620   16.1207   21.3258 C   0  0  0  0  0  0  0  0  0  0  0  0
   -6.9247   16.7895   22.5434 N   0  0  0  0  0  0  0  0  0  0  0  0
  -13.6870   22.1044   14.6654 C   0  0  0  0  0  0  0  0  0  0  0  0
  -13.1786   28.2067   16.7788 N   0  0  0  0  0  0  0  0  0  0  0  0
  -13.1771   22.6578   15.8642 C   0  0  0  0  0  0  0  0  0  0  0  0
  -12.6885   21.8021   16.8872 C   0  0  0  0  0  0  0  0  0  0  0  0
  -12.7071   20.3913   16.7099 C   0  0  0  0  0  0  0  0  0  0  0  0
  -13.2368   19.8348   15.5070 C   0  0  0  0  0  0  0  0  0  0  0  0
  -13.7216   20.6964   14.4851 C   0  0  0  0  0  0  0  0  0  0  0  0
  -13.7734   28.1726   18.0605 C   0  0  0  0  0  0  0  0  0  0  0  0
  -14.0767   26.8457   18.4416 C   0  0  0  0  0  0  0  0  0  0  0  0
  -13.6906   24.6274   17.2193 C   0  0  0  0  0  0  0  0  0  0  0  0
  -13.1633   24.0495   16.0325 C   0  0  0  0  0  0  0  0  0  0  0  0
  -12.6160   24.8847   15.0200 C   0  0  0  0  0  0  0  0  0  0  0  0
  -12.5943   26.2948   15.1959 C   0  0  0  0  0  0  0  0  0  0  0  0
  -13.1128   26.8721   16.3970 C   0  0  0  0  0  0  0  0  0  0  0  0
  -13.6553   26.0475   17.3995 C   0  0  0  0  0  0  0  0  0  0  0  0
  1  6  1  0  0  0  0
  2  4  1  0  0  0  0
  3  7  1  0  0  0  0
  4  5  1  0  0  0  0
  6  2  1  0  0  0  0
  7  8  1  0  0  0  0
  8  9  1  0  0  0  0
  9 10  1  0  0  0  0
 10 11  1  0  0  0  0
 10 12  1  0  0  0  0
 11 13  1  0  0  0  0
 13 15  1  0  0  0  0
 14 12  1  0  0  0  0
 15 14  1  0  0  0  0
 16 18  2  0  0  0  0
 16 22  1  0  0  0  0
 17 23  1  0  0  0  0
 17 29  1  0  0  0  0
 18 19  1  0  0  0  0
 18 26  1  0  0  0  0
 19 20  2  0  0  0  0
 20  3  1  0  0  0  0
 20 21  1  0  0  0  0
 21  5  1  0  0  0  0
 21 22  2  0  0  0  0
 23 24  2  0  0  0  0
 24 30  1  0  0  0  0
 25 26  2  0  0  0  0
 25 30  1  0  0  0  0
 26 27  1  0  0  0  0
 27 28  2  0  0  0  0
 28 29  1  0  0  0  0
 29 30  2  0  0  0  0
M  END
>  <CHROM.1>
-172.84529029,-140.74156718,-154.10919713,-69.43731647,-59.90190310,-155.30496647
151.62310897,-152.64935220,130.15801474,-53.76736096,139.43384446,-12.12758682
20.96530473,17.53966720,2.35251560,-0.74372409,0.01898414

>  <Name>
1uts_lig

>  <RI>
0

>  <Rbt.Current_Directory>
/home/itssahil/PROJECTS/Mol_Feturizer/New_Systems/rnas/1uts

>  <Rbt.Executable>
rbdock ($Id: //depot/dev/client3/rdock/2013.1/src/exe/rbdock.cxx#4 $)

>  <Rbt.Library>
libRbt.so (2013.1, Build901 2013/11/27)

>  <Rbt.Parameter_File>
/export/apps/rDock/src/rDock_2013.1_src/data/scripts/dock_solv.prm

>  <Rbt.Receptor>
prm/blind_docking_40.prm

>  <SCORE>
-22.8648

>  <SCORE.INTER>
-27.7643

>  <SCORE.INTER.CONST>
1

>  <SCORE.INTER.POLAR>
-2.0911

>  <SCORE.INTER.ROT>
10

>  <SCORE.INTER.SOLV>
12.9302

>  <SCORE.INTER.VDW>
-26.1159

>  <SCORE.INTER.norm>
-0.925477

>  <SCORE.INTRA>
2.23317

>  <SCORE.INTRA.DIHEDRAL>
-1.13708

>  <SCORE.INTRA.DIHEDRAL.0>
18.0451

>  <SCORE.INTRA.POLAR>
0.196815

>  <SCORE.INTRA.POLAR.0>
-0.196815

>  <SCORE.INTRA.REPUL>
0

>  <SCORE.INTRA.REPUL.0>
0

>  <SCORE.INTRA.SOLV>
-0.56485

>  <SCORE.INTRA.SOLV.lig_0>
-14.7906

>  <SCORE.INTRA.VDW>
2.41496

>  <SCORE.INTRA.VDW.0>
-0.411701

>  <SCORE.INTRA.norm>
0.074439

>  <SCORE.RESTR>
2.66636

>  <SCORE.RESTR.CAVITY>
2.66636

>  <SCORE.RESTR.norm>
0.0888786

>  <SCORE.SYSTEM>
0

>  <SCORE.SYSTEM.CONST>
0

>  <SCORE.SYSTEM.DIHEDRAL>
0

>  <SCORE.SYSTEM.SOLV>
0

>  <SCORE.SYSTEM.norm>
0

>  <SCORE.heavy>
30

>  <SCORE.norm>
-0.762159

>  <RMSD>
23.237

$$$$
1uts_lig
 OpenBabel11021811413D
libRbt.so/2013.1/901 2013/11/27
 30 33  0  0  0  0  0  0  0  0999 V2000
  -17.1003   16.2324   16.1398 N   0  0  0  0  0  0  0  0  0  0  0  0
  -15.0359   16.7128   14.8970 C   0  0  0  0  0  0  0  0  0  0  0  0
  -12.3164   19.5761   17.8129 C   0  0  0  0  0  0  0  0  0  0  0  0
  -14.9315   18.1884   15.2930 C   0  0  0  0  0  0  0  0  0  0  0  0
  -13.5498   18.5745   15.3317 O   0  0  0  0  0  0  0  0  0  0  0  0
  -16.5091   16.3161   14.7852 C   0  0  0  0  0  0  0  0  0  0  0  0
  -10.9275   19.9366   18.1780 N   0  0  0  0  0  0  0  0  0  0  0  0
  -10.2054   18.7278   18.6558 C   0  0  0  0  0  0  0  0  0  0  0  0
   -9.0433   19.1435   19.5626 C   0  0  0  0  0  0  0  0  0  0  0  0
   -8.5995   17.9781   20.3600 N   0  0  0  0  0  0  0  0  0  0  0  0
   -9.5144   17.8011   21.5243 C   0  0  0  0  0  0  0  0  0  0  0  0
   -7.2018   18.2017   20.8262 C   0  0  0  0  0  0  0  0  0  0  0  0
   -9.0542   16.5937   22.3572 C   0  0  0  0  0  0  0  0  0  0  0  0
   -6.7412   16.9950   21.6635 C   0  0  0  0  0  0  0  0  0  0  0  0
   -7.6568   16.8173   22.8247 N   0  0  0  0  0  0  0  0  0  0  0  0
  -13.8075   22.2859   14.7068 C   0  0  0  0  0  0  0  0  0  0  0  0
  -12.9907   28.3468   16.8331 N   0  0  0  0  0  0  0  0  0  0  0  0
  -13.2377   22.8077   15.8927 C   0  0  0  0  0  0  0  0  0  0  0  0
  -12.7569   21.9240   16.8954 C   0  0  0  0  0  0  0  0  0  0  0  0
  -12.8432   20.5168   16.7105 C   0  0  0  0  0  0  0  0  0  0  0  0
  -13.4330   19.9928   15.5211 C   0  0  0  0  0  0  0  0  0  0  0  0
  -13.9098   20.8822   14.5194 C   0  0  0  0  0  0  0  0  0  0  0  0
  -13.6762   28.3452   18.0692 C   0  0  0  0  0  0  0  0  0  0  0  0
  -14.0804   27.0373   18.4209 C   0  0  0  0  0  0  0  0  0  0  0  0
  -13.7342   24.8019   17.2179 C   0  0  0  0  0  0  0  0  0  0  0  0
  -13.1573   24.1963   16.0686 C   0  0  0  0  0  0  0  0  0  0  0  0
  -12.4929   25.0001   15.1019 C   0  0  0  0  0  0  0  0  0  0  0  0
  -12.4041   26.4065   15.2860 C   0  0  0  0  0  0  0  0  0  0  0  0
  -12.9734   27.0111   16.4502 C   0  0  0  0  0  0  0  0  0  0  0  0
  -13.6316   26.2175   17.4074 C   0  0  0  0  0  0  0  0  0  0  0  0
  1  6  1  0  0  0  0
  2  4  1  0  0  0  0
  3  7  1  0  0  0  0
  4  5  1  0  0  0  0
  6  2  1  0  0  0  0
  7  8  1  0  0  0  0
  8  9  1  0  0  0  0
  9 10  1  0  0  0  0
 10 11  1  0  0  0  0
 10 12  1  0  0  0  0
 11 13  1  0  0  0  0
 13 15  1  0  0  0  0
 14 12  1  0  0  0  0
 15 14  1  0  0  0  0
 16 18  2  0  0  0  0
 16 22  1  0  0  0  0
 17 23  1  0  0  0  0
 17 29  1  0  0  0  0
 18 19  1  0  0  0  0
 18 26  1  0  0  0  0
 19 20  2  0  0  0  0
 20  3  1  0  0  0  0
 20 21  1  0  0  0  0
 21  5  1  0  0  0  0
 21 22  2  0  0  0  0
 23 24  2  0  0  0  0
 24 30  1  0  0  0  0
 25 26  2  0  0  0  0
 25 30  1  0  0  0  0
 26 27  1  0  0  0  0
 27 28  2  0  0  0  0
 28 29  1  0  0  0  0
 29 30  2  0  0  0  0
M  END
>  <CHROM.1>
-90.15551434,-177.13974868,-151.31477682,172.15989825,-72.57732451,-156.07372907
162.47118646,-80.60035978,124.29263454,-52.22249357,115.10230627,-12.20468120
20.92004337,17.58504062,0.98416584,0.72524256,3.09741627

>  <Name>
1uts_lig

>  <RI>
0

>  <Rbt.Current_Directory>
/home/itssahil/PROJECTS/Mol_Feturizer/New_Systems/rnas/1uts

>  <Rbt.Executable>
rbdock ($Id: //depot/dev/client3/rdock/2013.1/src/exe/rbdock.cxx#4 $)

>  <Rbt.Library>
libRbt.so (2013.1, Build901 2013/11/27)

>  <Rbt.Parameter_File>
/export/apps/rDock/src/rDock_2013.1_src/data/scripts/dock_solv.prm

>  <Rbt.Receptor>
prm/blind_docking_40.prm

>  <SCORE>
-29.7628

>  <SCORE.INTER>
-31.6001

>  <SCORE.INTER.CONST>
1

>  <SCORE.INTER.POLAR>
-2.41249

>  <SCORE.INTER.ROT>
10

>  <SCORE.INTER.SOLV>
14.5955

>  <SCORE.INTER.VDW>
-28.157

>  <SCORE.INTER.norm>
-1.05334

>  <SCORE.INTRA>
-0.128839

>  <SCORE.INTRA.DIHEDRAL>
-2.395

>  <SCORE.INTRA.DIHEDRAL.0>
18.0451

>  <SCORE.INTRA.POLAR>
0.196815

>  <SCORE.INTRA.POLAR.0>
-0.196815

>  <SCORE.INTRA.REPUL>
0

>  <SCORE.INTRA.REPUL.0>
0

>  <SCORE.INTRA.SOLV>
-0.574304

>  <SCORE.INTRA.SOLV.lig_0>
-14.7906

>  <SCORE.INTRA.VDW>
0.686641

>  <SCORE.INTRA.VDW.0>
-0.411701

>  <SCORE.INTRA.norm>
-0.00429464

>  <SCORE.RESTR>
1.96615

>  <SCORE.RESTR.CAVITY>
1.96615

>  <SCORE.RESTR.norm>
0.0655382

>  <SCORE.SYSTEM>
0

>  <SCORE.SYSTEM.CONST>
0

>  <SCORE.SYSTEM.DIHEDRAL>
0

>  <SCORE.SYSTEM.SOLV>
0

>  <SCORE.SYSTEM.norm>
0

>  <SCORE.heavy>
30

>  <SCORE.norm>
-0.992094

>  <RMSD>
23.265

$$$$
1uts_lig
 OpenBabel11021811413D
libRbt.so/2013.1/901 2013/11/27
 30 33  0  0  0  0  0  0  0  0999 V2000
  -13.0435   17.4143   13.4715 N   0  0  0  0  0  0  0  0  0  0  0  0
  -14.9683   16.6948   14.8187 C   0  0  0  0  0  0  0  0  0  0  0  0
  -11.9941   19.5998   17.8061 C   0  0  0  0  0  0  0  0  0  0  0  0
  -14.9196   18.1646   15.2461 C   0  0  0  0  0  0  0  0  0  0  0  0
  -13.5658   18.5253   15.5575 O   0  0  0  0  0  0  0  0  0  0  0  0
  -14.2251   16.5227   13.4927 C   0  0  0  0  0  0  0  0  0  0  0  0
  -10.6581   20.1416   18.1434 N   0  0  0  0  0  0  0  0  0  0  0  0
   -9.6968   19.0229   18.3313 C   0  0  0  0  0  0  0  0  0  0  0  0
   -9.9774   18.3169   19.6611 C   0  0  0  0  0  0  0  0  0  0  0  0
   -8.7203   18.2056   20.4346 N   0  0  0  0  0  0  0  0  0  0  0  0
   -8.9840   17.4584   21.6979 C   0  0  0  0  0  0  0  0  0  0  0  0
   -8.2030   19.5704   20.7359 C   0  0  0  0  0  0  0  0  0  0  0  0
   -7.6812   17.3441   22.5059 C   0  0  0  0  0  0  0  0  0  0  0  0
   -6.9003   19.4572   21.5482 C   0  0  0  0  0  0  0  0  0  0  0  0
   -7.1640   18.7088   22.8086 N   0  0  0  0  0  0  0  0  0  0  0  0
  -13.9846   22.2178   14.9081 C   0  0  0  0  0  0  0  0  0  0  0  0
  -12.9885   28.3366   16.7695 N   0  0  0  0  0  0  0  0  0  0  0  0
  -13.2537   22.7741   15.9849 C   0  0  0  0  0  0  0  0  0  0  0  0
  -12.6115   21.9201   16.9207 C   0  0  0  0  0  0  0  0  0  0  0  0
  -12.6978   20.5080   16.7775 C   0  0  0  0  0  0  0  0  0  0  0  0
  -13.4489   19.9491   15.7003 C   0  0  0  0  0  0  0  0  0  0  0  0
  -14.0871   20.8089   14.7648 C   0  0  0  0  0  0  0  0  0  0  0  0
  -13.5592   28.3583   18.0624 C   0  0  0  0  0  0  0  0  0  0  0  0
  -13.9143   27.0555   18.4798 C   0  0  0  0  0  0  0  0  0  0  0  0
  -13.6519   24.7950   17.3029 C   0  0  0  0  0  0  0  0  0  0  0  0
  -13.1742   24.1673   16.1204 C   0  0  0  0  0  0  0  0  0  0  0  0
  -12.6097   24.9538   15.0788 C   0  0  0  0  0  0  0  0  0  0  0  0
  -12.5214   26.3650   15.2212 C   0  0  0  0  0  0  0  0  0  0  0  0
  -12.9901   26.9922   16.4179 C   0  0  0  0  0  0  0  0  0  0  0  0
  -13.5494   26.2157   17.4492 C   0  0  0  0  0  0  0  0  0  0  0  0
  1  6  1  0  0  0  0
  2  4  1  0  0  0  0
  3  7  1  0  0  0  0
  4  5  1  0  0  0  0
  6  2  1  0  0  0  0
  7  8  1  0  0  0  0
  8  9  1  0  0  0  0
  9 10  1  0  0  0  0
 10 11  1  0  0  0  0
 10 12  1  0  0  0  0
 11 13  1  0  0  0  0
 13 15  1  0  0  0  0
 14 12  1  0  0  0  0
 15 14  1  0  0  0  0
 16 18  2  0  0  0  0
 16 22  1  0  0  0  0
 17 23  1  0  0  0  0
 17 29  1  0  0  0  0
 18 19  1  0  0  0  0
 18 26  1  0  0  0  0
 19 20  2  0  0  0  0
 20  3  1  0  0  0  0
 20 21  1  0  0  0  0
 21  5  1  0  0  0  0
 21 22  2  0  0  0  0
 23 24  2  0  0  0  0
 24 30  1  0  0  0  0
 25 26  2  0  0  0  0
 25 30  1  0  0  0  0
 26 27  1  0  0  0  0
 27 28  2  0  0  0  0
 28 29  1  0  0  0  0
 29 30  2  0  0  0  0
M  END
>  <CHROM.1>
157.60556485,-66.62122356,-143.02619064,168.50815769,36.92484642,-73.60427648
-129.05621560,-177.22275572,120.84840865,-41.53505557,136.10167974,-11.90367059
21.18238753,17.45563726,0.77699832,0.86009276,-2.97867626

>  <Name>
1uts_lig

>  <RI>
0

>  <Rbt.Current_Directory>
/home/itssahil/PROJECTS/Mol_Feturizer/New_Systems/rnas/1uts

>  <Rbt.Executable>
rbdock ($Id: //depot/dev/client3/rdock/2013.1/src/exe/rbdock.cxx#4 $)

>  <Rbt.Library>
libRbt.so (2013.1, Build901 2013/11/27)

>  <Rbt.Parameter_File>
/export/apps/rDock/src/rDock_2013.1_src/data/scripts/dock_solv.prm

>  <Rbt.Receptor>
prm/blind_docking_40.prm

>  <SCORE>
-34.2565

>  <SCORE.INTER>
-42.8486

>  <SCORE.INTER.CONST>
1

>  <SCORE.INTER.POLAR>
-3.64252

>  <SCORE.INTER.ROT>
10

>  <SCORE.INTER.SOLV>
13.5377

>  <SCORE.INTER.VDW>
-31.2032

>  <SCORE.INTER.norm>
-1.42829

>  <SCORE.INTRA>
5.3487

>  <SCORE.INTRA.DIHEDRAL>
0.310062

>  <SCORE.INTRA.DIHEDRAL.0>
18.0451

>  <SCORE.INTRA.POLAR>
-0.0451827

>  <SCORE.INTRA.POLAR.0>
-0.196815

>  <SCORE.INTRA.REPUL>
0

>  <SCORE.INTRA.REPUL.0>
0

>  <SCORE.INTRA.SOLV>
0.222582

>  <SCORE.INTRA.SOLV.lig_0>
-14.7906

>  <SCORE.INTRA.VDW>
5.236

>  <SCORE.INTRA.VDW.0>
-0.411701

>  <SCORE.INTRA.norm>
0.17829

>  <SCORE.RESTR>
3.24345

>  <SCORE.RESTR.CAVITY>
3.24345

>  <SCORE.RESTR.norm>
0.108115

>  <SCORE.SYSTEM>
0

>  <SCORE.SYSTEM.CONST>
0

>  <SCORE.SYSTEM.DIHEDRAL>
0

>  <SCORE.SYSTEM.SOLV>
0

>  <SCORE.SYSTEM.norm>
0

>  <SCORE.heavy>
30

>  <SCORE.norm>
-1.14188

>  <RMSD>
23.278

$$$$
1uts_lig
 OpenBabel11021811413D
libRbt.so/2013.1/901 2013/11/27
 30 33  0  0  0  0  0  0  0  0999 V2000
  -17.3957   16.9522   15.0650 N   0  0  0  0  0  0  0  0  0  0  0  0
  -14.9517   16.7316   14.9418 C   0  0  0  0  0  0  0  0  0  0  0  0
  -12.1217   19.6387   17.7893 C   0  0  0  0  0  0  0  0  0  0  0  0
  -14.7717   18.2510   14.8760 C   0  0  0  0  0  0  0  0  0  0  0  0
  -13.4773   18.5998   15.3884 O   0  0  0  0  0  0  0  0  0  0  0  0
  -16.2063   16.3997   15.7517 C   0  0  0  0  0  0  0  0  0  0  0  0
  -10.6869   19.3999   17.5130 N   0  0  0  0  0  0  0  0  0  0  0  0
   -9.9048   19.5387   18.7700 C   0  0  0  0  0  0  0  0  0  0  0  0
   -9.1595   18.2333   19.0630 C   0  0  0  0  0  0  0  0  0  0  0  0
   -8.6439   18.2611   20.4502 N   0  0  0  0  0  0  0  0  0  0  0  0
   -7.3720   17.4855   20.5183 C   0  0  0  0  0  0  0  0  0  0  0  0
   -9.6610   17.6736   21.3673 C   0  0  0  0  0  0  0  0  0  0  0  0
   -6.8353   17.5090   21.9587 C   0  0  0  0  0  0  0  0  0  0  0  0
   -9.1232   17.6931   22.8095 C   0  0  0  0  0  0  0  0  0  0  0  0
   -7.8517   16.9203   22.8762 N   0  0  0  0  0  0  0  0  0  0  0  0
  -13.8404   22.3021   14.7617 C   0  0  0  0  0  0  0  0  0  0  0  0
  -13.0178   28.3897   16.8076 N   0  0  0  0  0  0  0  0  0  0  0  0
  -13.2130   22.8414   15.9101 C   0  0  0  0  0  0  0  0  0  0  0  0
  -12.6585   21.9726   16.8875 C   0  0  0  0  0  0  0  0  0  0  0  0
  -12.7289   20.5630   16.7147 C   0  0  0  0  0  0  0  0  0  0  0  0
  -13.3765   20.0212   15.5639 C   0  0  0  0  0  0  0  0  0  0  0  0
  -13.9270   20.8957   14.5873 C   0  0  0  0  0  0  0  0  0  0  0  0
  -13.6385   28.3834   18.0774 C   0  0  0  0  0  0  0  0  0  0  0  0
  -14.0003   27.0707   18.4564 C   0  0  0  0  0  0  0  0  0  0  0  0
  -13.6764   24.8345   17.2488 C   0  0  0  0  0  0  0  0  0  0  0  0
  -13.1487   24.2322   16.0744 C   0  0  0  0  0  0  0  0  0  0  0  0
  -12.5497   25.0418   15.0704 C   0  0  0  0  0  0  0  0  0  0  0  0
  -12.4769   26.4506   15.2423 C   0  0  0  0  0  0  0  0  0  0  0  0
  -12.9962   27.0521   16.4312 C   0  0  0  0  0  0  0  0  0  0  0  0
  -13.5897   26.2528   17.4254 C   0  0  0  0  0  0  0  0  0  0  0  0
  1  6  1  0  0  0  0
  2  4  1  0  0  0  0
  3  7  1  0  0  0  0
  4  5  1  0  0  0  0
  6  2  1  0  0  0  0
  7  8  1  0  0  0  0
  8  9  1  0  0  0  0
  9 10  1  0  0  0  0
 10 11  1  0  0  0  0
 10 12  1  0  0  0  0
 11 13  1  0  0  0  0
 13 15  1  0  0  0  0
 14 12  1  0  0  0  0
 15 14  1  0  0  0  0
 16 18  2  0  0  0  0
 16 22  1  0  0  0  0
 17 23  1  0  0  0  0
 17 29  1  0  0  0  0
 18 19  1  0  0  0  0
 18 26  1  0  0  0  0
 19 20  2  0  0  0  0
 20  3  1  0  0  0  0
 20 21  1  0  0  0  0
 21  5  1  0  0  0  0
 21 22  2  0  0  0  0
 23 24  2  0  0  0  0
 24 30  1  0  0  0  0
 25 26  2  0  0  0  0
 25 30  1  0  0  0  0
 26 27  1  0  0  0  0
 27 28  2  0  0  0  0
 28 29  1  0  0  0  0
 29 30  2  0  0  0  0
M  END
>  <CHROM.1>
53.10009443,123.63574139,134.89905310,-169.56599114,62.75252652,121.23366926
-167.00227290,-148.28873770,123.93693101,-87.47220642,139.33466234,-12.19123246
20.99115612,17.53786463,0.94722572,0.74935719,3.12310757

>  <Name>
1uts_lig

>  <RI>
0

>  <Rbt.Current_Directory>
/home/itssahil/PROJECTS/Mol_Feturizer/New_Systems/rnas/1uts

>  <Rbt.Executable>
rbdock ($Id: //depot/dev/client3/rdock/2013.1/src/exe/rbdock.cxx#4 $)

>  <Rbt.Library>
libRbt.so (2013.1, Build901 2013/11/27)

>  <Rbt.Parameter_File>
/export/apps/rDock/src/rDock_2013.1_src/data/scripts/dock_solv.prm

>  <Rbt.Receptor>
prm/blind_docking_40.prm

>  <SCORE>
-26.2512

>  <SCORE.INTER>
-32.5845

>  <SCORE.INTER.CONST>
1

>  <SCORE.INTER.POLAR>
-2.072

>  <SCORE.INTER.ROT>
10

>  <SCORE.INTER.SOLV>
14.4593

>  <SCORE.INTER.VDW>
-29.9028

>  <SCORE.INTER.norm>
-1.08615

>  <SCORE.INTRA>
4.18065

>  <SCORE.INTRA.DIHEDRAL>
3.34994

>  <SCORE.INTRA.DIHEDRAL.0>
18.0451

>  <SCORE.INTRA.POLAR>
0.196815

>  <SCORE.INTRA.POLAR.0>
-0.196815

>  <SCORE.INTRA.REPUL>
0

>  <SCORE.INTRA.REPUL.0>
0

>  <SCORE.INTRA.SOLV>
-0.49185

>  <SCORE.INTRA.SOLV.lig_0>
-14.7906

>  <SCORE.INTRA.VDW>
2.08243

>  <SCORE.INTRA.VDW.0>
-0.411701

>  <SCORE.INTRA.norm>
0.139355

>  <SCORE.RESTR>
2.15268

>  <SCORE.RESTR.CAVITY>
2.15268

>  <SCORE.RESTR.norm>
0.0717559

>  <SCORE.SYSTEM>
0

>  <SCORE.SYSTEM.CONST>
0

>  <SCORE.SYSTEM.DIHEDRAL>
0

>  <SCORE.SYSTEM.SOLV>
0

>  <SCORE.SYSTEM.norm>
0

>  <SCORE.heavy>
30

>  <SCORE.norm>
-0.875041

>  <RMSD>
23.303

$$$$
1uts_lig
 OpenBabel11021811413D
libRbt.so/2013.1/901 2013/11/27
 30 33  0  0  0  0  0  0  0  0999 V2000
  -16.9506   16.3438   16.5313 N   0  0  0  0  0  0  0  0  0  0  0  0
  -15.2029   16.9858   14.9280 C   0  0  0  0  0  0  0  0  0  0  0  0
  -11.9851   19.6642   18.0060 C   0  0  0  0  0  0  0  0  0  0  0  0
  -14.2503   18.1376   14.5943 C   0  0  0  0  0  0  0  0  0  0  0  0
  -13.5163   18.5046   15.7717 O   0  0  0  0  0  0  0  0  0  0  0  0
  -16.3167   17.4927   15.8459 C   0  0  0  0  0  0  0  0  0  0  0  0
  -10.6182   19.3075   17.5627 N   0  0  0  0  0  0  0  0  0  0  0  0
   -9.6641   19.4850   18.6893 C   0  0  0  0  0  0  0  0  0  0  0  0
   -9.8895   18.3902   19.7362 C   0  0  0  0  0  0  0  0  0  0  0  0
   -8.6793   18.2568   20.5780 N   0  0  0  0  0  0  0  0  0  0  0  0
   -8.1503   19.6138   20.8981 C   0  0  0  0  0  0  0  0  0  0  0  0
   -7.6549   17.4582   19.8474 C   0  0  0  0  0  0  0  0  0  0  0  0
   -6.8908   19.4792   21.7692 C   0  0  0  0  0  0  0  0  0  0  0  0
   -6.3918   17.3259   20.7173 C   0  0  0  0  0  0  0  0  0  0  0  0
   -5.8654   18.6816   21.0386 N   0  0  0  0  0  0  0  0  0  0  0  0
  -13.9660   22.1709   15.0048 C   0  0  0  0  0  0  0  0  0  0  0  0
  -13.0630   28.3542   16.6901 N   0  0  0  0  0  0  0  0  0  0  0  0
  -13.2550   22.7676   16.0732 C   0  0  0  0  0  0  0  0  0  0  0  0
  -12.6158   21.9496   17.0425 C   0  0  0  0  0  0  0  0  0  0  0  0
  -12.6852   20.5329   16.9415 C   0  0  0  0  0  0  0  0  0  0  0  0
  -13.4164   19.9333   15.8724 C   0  0  0  0  0  0  0  0  0  0  0  0
  -14.0517   20.7572   14.9033 C   0  0  0  0  0  0  0  0  0  0  0  0
  -13.6705   28.4104   17.9651 C   0  0  0  0  0  0  0  0  0  0  0  0
  -14.0255   27.1177   18.4130 C   0  0  0  0  0  0  0  0  0  0  0  0
  -13.7090   24.8244   17.3153 C   0  0  0  0  0  0  0  0  0  0  0  0
  -13.1921   24.1651   16.1671 C   0  0  0  0  0  0  0  0  0  0  0  0
  -12.6053   24.9244   15.1177 C   0  0  0  0  0  0  0  0  0  0  0  0
  -12.5339   26.3402   15.2182 C   0  0  0  0  0  0  0  0  0  0  0  0
  -13.0423   26.9996   16.3809 C   0  0  0  0  0  0  0  0  0  0  0  0
  -13.6237   26.2500   17.4199 C   0  0  0  0  0  0  0  0  0  0  0  0
  1  6  1  0  0  0  0
  2  4  1  0  0  0  0
  3  7  1  0  0  0  0
  4  5  1  0  0  0  0
  6  2  1  0  0  0  0
  7  8  1  0  0  0  0
  8  9  1  0  0  0  0
  9 10  1  0  0  0  0
 10 11  1  0  0  0  0
 10 12  1  0  0  0  0
 11 13  1  0  0  0  0
 13 15  1  0  0  0  0
 14 12  1  0  0  0  0
 15 14  1  0  0  0  0
 16 18  2  0  0  0  0
 16 22  1  0  0  0  0
 17 23  1  0  0  0  0
 17 29  1  0  0  0  0
 18 19  1  0  0  0  0
 18 26  1  0  0  0  0
 19 20  2  0  0  0  0
 20  3  1  0  0  0  0
 20 21  1  0  0  0  0
 21  5  1  0  0  0  0
 21 22  2  0  0  0  0
 23 24  2  0  0  0  0
 24 30  1  0  0  0  0
 25 26  2  0  0  0  0
 25 30  1  0  0  0  0
 26 27  1  0  0  0  0
 27 28  2  0  0  0  0
 28 29  1  0  0  0  0
 29 30  2  0  0  0  0
M  END
>  <CHROM.1>
-37.93969279,69.20823976,135.52380017,-138.36441970,-160.86167510,71.42753464
159.67644797,41.58131187,119.94340090,-93.20166723,-177.71056871,-11.98679522
21.16494244,17.49152903,0.88434177,0.59733885,3.14043680

>  <Name>
1uts_lig

>  <RI>
0

>  <Rbt.Current_Directory>
/home/itssahil/PROJECTS/Mol_Feturizer/New_Systems/rnas/1uts

>  <Rbt.Executable>
rbdock ($Id: //depot/dev/client3/rdock/2013.1/src/exe/rbdock.cxx#4 $)

>  <Rbt.Library>
libRbt.so (2013.1, Build901 2013/11/27)

>  <Rbt.Parameter_File>
/export/apps/rDock/src/rDock_2013.1_src/data/scripts/dock_solv.prm

>  <Rbt.Receptor>
prm/blind_docking_40.prm

>  <SCORE>
-17.2858

>  <SCORE.INTER>
-30.5445

>  <SCORE.INTER.CONST>
1

>  <SCORE.INTER.POLAR>
-2.6989

>  <SCORE.INTER.ROT>
10

>  <SCORE.INTER.SOLV>
14.3364

>  <SCORE.INTER.VDW>
-26.4122

>  <SCORE.INTER.norm>
-1.01815

>  <SCORE.INTRA>
9.87357

>  <SCORE.INTRA.DIHEDRAL>
0.189234

>  <SCORE.INTRA.DIHEDRAL.0>
18.0451

>  <SCORE.INTRA.POLAR>
0.196815

>  <SCORE.INTRA.POLAR.0>
-0.196815

>  <SCORE.INTRA.REPUL>
0

>  <SCORE.INTRA.REPUL.0>
0

>  <SCORE.INTRA.SOLV>
-0.468781

>  <SCORE.INTRA.SOLV.lig_0>
-14.7906

>  <SCORE.INTRA.VDW>
9.34417

>  <SCORE.INTRA.VDW.0>
-0.411701

>  <SCORE.INTRA.norm>
0.329119

>  <SCORE.RESTR>
3.38521

>  <SCORE.RESTR.CAVITY>
3.38521

>  <SCORE.RESTR.norm>
0.11284

>  <SCORE.SYSTEM>
0

>  <SCORE.SYSTEM.CONST>
0

>  <SCORE.SYSTEM.DIHEDRAL>
0

>  <SCORE.SYSTEM.SOLV>
0

>  <SCORE.SYSTEM.norm>
0

>  <SCORE.heavy>
30

>  <SCORE.norm>
-0.576192

>  <RMSD>
23.324

$$$$
1uts_lig
 OpenBabel11021811413D
libRbt.so/2013.1/901 2013/11/27
 30 33  0  0  0  0  0  0  0  0999 V2000
  -17.1816   16.2437   15.9095 N   0  0  0  0  0  0  0  0  0  0  0  0
  -15.0104   16.7246   14.8645 C   0  0  0  0  0  0  0  0  0  0  0  0
  -12.1626   19.6209   17.7575 C   0  0  0  0  0  0  0  0  0  0  0  0
  -14.9267   18.1998   15.2669 C   0  0  0  0  0  0  0  0  0  0  0  0
  -13.5487   18.5873   15.3718 O   0  0  0  0  0  0  0  0  0  0  0  0
  -16.4710   16.3446   14.6147 C   0  0  0  0  0  0  0  0  0  0  0  0
  -10.7317   19.3783   17.4646 N   0  0  0  0  0  0  0  0  0  0  0  0
   -9.9278   19.5715   18.7004 C   0  0  0  0  0  0  0  0  0  0  0  0
   -9.1484   18.2916   19.0166 C   0  0  0  0  0  0  0  0  0  0  0  0
   -8.7228   18.3115   20.4341 N   0  0  0  0  0  0  0  0  0  0  0  0
   -7.4340   17.5740   20.5716 C   0  0  0  0  0  0  0  0  0  0  0  0
   -9.7770   17.6779   21.2756 C   0  0  0  0  0  0  0  0  0  0  0  0
   -6.9906   17.5893   22.0435 C   0  0  0  0  0  0  0  0  0  0  0  0
   -9.3324   17.6892   22.7493 C   0  0  0  0  0  0  0  0  0  0  0  0
   -8.0440   16.9545   22.8854 N   0  0  0  0  0  0  0  0  0  0  0  0
  -13.9084   22.2909   14.7512 C   0  0  0  0  0  0  0  0  0  0  0  0
  -13.0615   28.3764   16.7859 N   0  0  0  0  0  0  0  0  0  0  0  0
  -13.2663   22.8277   15.8926 C   0  0  0  0  0  0  0  0  0  0  0  0
  -12.7031   21.9569   16.8631 C   0  0  0  0  0  0  0  0  0  0  0  0
  -12.7795   20.5475   16.6903 C   0  0  0  0  0  0  0  0  0  0  0  0
  -13.4418   20.0082   15.5468 C   0  0  0  0  0  0  0  0  0  0  0  0
  -14.0010   20.8848   14.5770 C   0  0  0  0  0  0  0  0  0  0  0  0
  -13.7551   28.3810   18.0174 C   0  0  0  0  0  0  0  0  0  0  0  0
  -14.1531   27.0736   18.3780 C   0  0  0  0  0  0  0  0  0  0  0  0
  -13.7845   24.8301   17.1970 C   0  0  0  0  0  0  0  0  0  0  0  0
  -13.1961   24.2183   16.0568 C   0  0  0  0  0  0  0  0  0  0  0  0
  -12.5306   25.0180   15.0874 C   0  0  0  0  0  0  0  0  0  0  0  0
  -12.4522   26.4264   15.2597 C   0  0  0  0  0  0  0  0  0  0  0  0
  -13.0330   27.0374   16.4148 C   0  0  0  0  0  0  0  0  0  0  0  0
  -13.6923   26.2479   17.3747 C   0  0  0  0  0  0  0  0  0  0  0  0
  1  6  1  0  0  0  0
  2  4  1  0  0  0  0
  3  7  1  0  0  0  0
  4  5  1  0  0  0  0
  6  2  1  0  0  0  0
  7  8  1  0  0  0  0
  8  9  1  0  0  0  0
  9 10  1  0  0  0  0
 10 11  1  0  0  0  0
 10 12  1  0  0  0  0
 11 13  1  0  0  0  0
 13 15  1  0  0  0  0
 14 12  1  0  0  0  0
 15 14  1  0  0  0  0
 16 18  2  0  0  0  0
 16 22  1  0  0  0  0
 17 23  1  0  0  0  0
 17 29  1  0  0  0  0
 18 19  1  0  0  0  0
 18 26  1  0  0  0  0
 19 20  2  0  0  0  0
 20  3  1  0  0  0  0
 20 21  1  0  0  0  0
 21  5  1  0  0  0  0
 21 22  2  0  0  0  0
 23 24  2  0  0  0  0
 24 30  1  0  0  0  0
 25 26  2  0  0  0  0
 25 30  1  0  0  0  0
 26 27  1  0  0  0  0
 27 28  2  0  0  0  0
 28 29  1  0  0  0  0
 29 30  2  0  0  0  0
M  END
>  <CHROM.1>
157.00886120,-174.35761982,132.47949897,171.23755582,-73.72496413,122.33870277
-161.30884370,-148.91066569,119.90682226,-87.46735297,122.13371951,-12.26156803
20.96131504,17.52862230,0.98780356,0.74989811,3.11187134

>  <Name>
1uts_lig

>  <RI>
0

>  <Rbt.Current_Directory>
/home/itssahil/PROJECTS/Mol_Feturizer/New_Systems/rnas/1uts

>  <Rbt.Executable>
rbdock ($Id: //depot/dev/client3/rdock/2013.1/src/exe/rbdock.cxx#4 $)

>  <Rbt.Library>
libRbt.so (2013.1, Build901 2013/11/27)

>  <Rbt.Parameter_File>
/export/apps/rDock/src/rDock_2013.1_src/data/scripts/dock_solv.prm

>  <Rbt.Receptor>
prm/blind_docking_40.prm

>  <SCORE>
-31.031

>  <SCORE.INTER>
-35.6026

>  <SCORE.INTER.CONST>
1

>  <SCORE.INTER.POLAR>
-2.5229

>  <SCORE.INTER.ROT>
10

>  <SCORE.INTER.SOLV>
15.2545

>  <SCORE.INTER.VDW>
-30.677

>  <SCORE.INTER.norm>
-1.18675

>  <SCORE.INTRA>
2.36267

>  <SCORE.INTRA.DIHEDRAL>
1.93273

>  <SCORE.INTRA.DIHEDRAL.0>
18.0451

>  <SCORE.INTRA.POLAR>
0.196815

>  <SCORE.INTRA.POLAR.0>
-0.196815

>  <SCORE.INTRA.REPUL>
0

>  <SCORE.INTRA.REPUL.0>
0

>  <SCORE.INTRA.SOLV>
-0.526896

>  <SCORE.INTRA.SOLV.lig_0>
-14.7906

>  <SCORE.INTRA.VDW>
0.990585

>  <SCORE.INTRA.VDW.0>
-0.411701

>  <SCORE.INTRA.norm>
0.0787557

>  <SCORE.RESTR>
2.20893

>  <SCORE.RESTR.CAVITY>
2.20893

>  <SCORE.RESTR.norm>
0.0736311

>  <SCORE.SYSTEM>
0

>  <SCORE.SYSTEM.CONST>
0

>  <SCORE.SYSTEM.DIHEDRAL>
0

>  <SCORE.SYSTEM.SOLV>
0

>  <SCORE.SYSTEM.norm>
0

>  <SCORE.heavy>
30

>  <SCORE.norm>
-1.03437

>  <RMSD>
23.328

$$$$
1uts_lig
 OpenBabel11021811413D
libRbt.so/2013.1/901 2013/11/27
 30 33  0  0  0  0  0  0  0  0999 V2000
  -17.3837   17.5763   15.3387 N   0  0  0  0  0  0  0  0  0  0  0  0
  -15.1495   16.6763   14.8536 C   0  0  0  0  0  0  0  0  0  0  0  0
  -11.3953   19.5919   17.0422 C   0  0  0  0  0  0  0  0  0  0  0  0
  -14.6060   18.0947   14.6591 C   0  0  0  0  0  0  0  0  0  0  0  0
  -13.8166   18.4627   15.7998 O   0  0  0  0  0  0  0  0  0  0  0  0
  -16.3050   16.7042   15.8557 C   0  0  0  0  0  0  0  0  0  0  0  0
  -11.0613   20.0142   18.4214 N   0  0  0  0  0  0  0  0  0  0  0  0
   -9.6127   19.7947   18.6755 C   0  0  0  0  0  0  0  0  0  0  0  0
   -9.3709   18.3335   19.0652 C   0  0  0  0  0  0  0  0  0  0  0  0
   -8.7891   18.2762   20.4250 N   0  0  0  0  0  0  0  0  0  0  0  0
   -7.5507   17.4459   20.3961 C   0  0  0  0  0  0  0  0  0  0  0  0
   -9.7862   17.6903   21.3648 C   0  0  0  0  0  0  0  0  0  0  0  0
   -6.9456   17.3809   21.8077 C   0  0  0  0  0  0  0  0  0  0  0  0
   -9.1800   17.6212   22.7781 C   0  0  0  0  0  0  0  0  0  0  0  0
   -7.9420   16.7938   22.7479 N   0  0  0  0  0  0  0  0  0  0  0  0
  -14.5768   22.1391   15.4285 C   0  0  0  0  0  0  0  0  0  0  0  0
  -13.0751   28.3034   16.6119 N   0  0  0  0  0  0  0  0  0  0  0  0
  -13.4375   22.7211   16.0338 C   0  0  0  0  0  0  0  0  0  0  0  0
  -12.4104   21.8899   16.5551 C   0  0  0  0  0  0  0  0  0  0  0  0
  -12.5215   20.4750   16.4681 C   0  0  0  0  0  0  0  0  0  0  0  0
  -13.6789   19.8899   15.8720 C   0  0  0  0  0  0  0  0  0  0  0  0
  -14.7024   20.7270   15.3491 C   0  0  0  0  0  0  0  0  0  0  0  0
  -13.6058   28.3786   17.9198 C   0  0  0  0  0  0  0  0  0  0  0  0
  -13.9652   27.0965   18.3937 C   0  0  0  0  0  0  0  0  0  0  0  0
  -13.7686   24.7925   17.2904 C   0  0  0  0  0  0  0  0  0  0  0  0
  -13.3356   24.1169   16.1172 C   0  0  0  0  0  0  0  0  0  0  0  0
  -12.7927   24.8583   15.0318 C   0  0  0  0  0  0  0  0  0  0  0  0
  -12.6815   26.2722   15.1213 C   0  0  0  0  0  0  0  0  0  0  0  0
  -13.1051   26.9476   16.3085 C   0  0  0  0  0  0  0  0  0  0  0  0
  -13.6430   26.2159   17.3830 C   0  0  0  0  0  0  0  0  0  0  0  0
  1  6  1  0  0  0  0
  2  4  1  0  0  0  0
  3  7  1  0  0  0  0
  4  5  1  0  0  0  0
  6  2  1  0  0  0  0
  7  8  1  0  0  0  0
  8  9  1  0  0  0  0
  9 10  1  0  0  0  0
 10 11  1  0  0  0  0
 10 12  1  0  0  0  0
 11 13  1  0  0  0  0
 13 15  1  0  0  0  0
 14 12  1  0  0  0  0
 15 14  1  0  0  0  0
 16 18  2  0  0  0  0
 16 22  1  0  0  0  0
 17 23  1  0  0  0  0
 17 29  1  0  0  0  0
 18 19  1  0  0  0  0
 18 26  1  0  0  0  0
 19 20  2  0  0  0  0
 20  3  1  0  0  0  0
 20 21  1  0  0  0  0
 21  5  1  0  0  0  0
 21 22  2  0  0  0  0
 23 24  2  0  0  0  0
 24 30  1  0  0  0  0
 25 26  2  0  0  0  0
 25 30  1  0  0  0  0
 26 27  1  0  0  0  0
 27 28  2  0  0  0  0
 28 29  1  0  0  0  0
 29 30  2  0  0  0  0
M  END
>  <CHROM.1>
-65.67136713,75.62342740,-147.25279505,-160.36613680,60.13784898,-82.64808898
-119.21180118,-127.96048039,94.29691912,49.65175044,-150.98348395,-12.29956748
20.99361833,17.57199097,2.20470765,-0.72161234,-0.03404952

>  <Name>
1uts_lig

>  <RI>
0

>  <Rbt.Current_Directory>
/home/itssahil/PROJECTS/Mol_Feturizer/New_Systems/rnas/1uts

>  <Rbt.Executable>
rbdock ($Id: //depot/dev/client3/rdock/2013.1/src/exe/rbdock.cxx#4 $)

>  <Rbt.Library>
libRbt.so (2013.1, Build901 2013/11/27)

>  <Rbt.Parameter_File>
/export/apps/rDock/src/rDock_2013.1_src/data/scripts/dock_solv.prm

>  <Rbt.Receptor>
prm/blind_docking_40.prm

>  <SCORE>
-17.5641

>  <SCORE.INTER>
-25.1827

>  <SCORE.INTER.CONST>
1

>  <SCORE.INTER.POLAR>
-0.478699

>  <SCORE.INTER.ROT>
10

>  <SCORE.INTER.SOLV>
14.0831

>  <SCORE.INTER.VDW>
-30.1538

>  <SCORE.INTER.norm>
-0.839423

>  <SCORE.INTRA>
5.22613

>  <SCORE.INTRA.DIHEDRAL>
3.37246

>  <SCORE.INTRA.DIHEDRAL.0>
18.0451

>  <SCORE.INTRA.POLAR>
0.196815

>  <SCORE.INTRA.POLAR.0>
-0.196815

>  <SCORE.INTRA.REPUL>
0

>  <SCORE.INTRA.REPUL.0>
0

>  <SCORE.INTRA.SOLV>
-0.24113

>  <SCORE.INTRA.SOLV.lig_0>
-14.7906

>  <SCORE.INTRA.VDW>
2.99129

>  <SCORE.INTRA.VDW.0>
-0.411701

>  <SCORE.INTRA.norm>
0.174204

>  <SCORE.RESTR>
2.39244

>  <SCORE.RESTR.CAVITY>
2.39244

>  <SCORE.RESTR.norm>
0.0797481

>  <SCORE.SYSTEM>
0

>  <SCORE.SYSTEM.CONST>
0

>  <SCORE.SYSTEM.DIHEDRAL>
0

>  <SCORE.SYSTEM.SOLV>
0

>  <SCORE.SYSTEM.norm>
0

>  <SCORE.heavy>
30

>  <SCORE.norm>
-0.585471

>  <RMSD>
23.332

$$$$
1uts_lig
 OpenBabel11021811413D
libRbt.so/2013.1/901 2013/11/27
 30 33  0  0  0  0  0  0  0  0999 V2000
  -17.1798   16.1815   15.8347 N   0  0  0  0  0  0  0  0  0  0  0  0
  -15.0306   16.8269   14.8340 C   0  0  0  0  0  0  0  0  0  0  0  0
  -11.0380   19.7356   16.8393 C   0  0  0  0  0  0  0  0  0  0  0  0
  -14.1331   18.0244   14.5089 C   0  0  0  0  0  0  0  0  0  0  0  0
  -13.3933   18.3970   15.6810 O   0  0  0  0  0  0  0  0  0  0  0  0
  -16.2062   17.2881   15.6973 C   0  0  0  0  0  0  0  0  0  0  0  0
  -11.0209   19.5288   18.3053 N   0  0  0  0  0  0  0  0  0  0  0  0
   -9.6253   19.6278   18.8088 C   0  0  0  0  0  0  0  0  0  0  0  0
   -9.1204   18.2392   19.2117 C   0  0  0  0  0  0  0  0  0  0  0  0
   -8.8527   18.2156   20.6673 N   0  0  0  0  0  0  0  0  0  0  0  0
   -7.9324   19.3357   21.0168 C   0  0  0  0  0  0  0  0  0  0  0  0
   -8.2428   16.9069   21.0364 C   0  0  0  0  0  0  0  0  0  0  0  0
   -7.6489   19.3121   22.5276 C   0  0  0  0  0  0  0  0  0  0  0  0
   -7.9551   16.8835   22.5484 C   0  0  0  0  0  0  0  0  0  0  0  0
   -7.0378   18.0039   22.8972 N   0  0  0  0  0  0  0  0  0  0  0  0
  -14.6281   21.9616   15.6685 C   0  0  0  0  0  0  0  0  0  0  0  0
  -13.9846   28.1712   17.1457 N   0  0  0  0  0  0  0  0  0  0  0  0
  -13.5243   22.6402   16.2383 C   0  0  0  0  0  0  0  0  0  0  0  0
  -12.3643   21.9127   16.6159 C   0  0  0  0  0  0  0  0  0  0  0  0
  -12.3068   20.5054   16.4205 C   0  0  0  0  0  0  0  0  0  0  0  0
  -13.4272   19.8209   15.8608 C   0  0  0  0  0  0  0  0  0  0  0  0
  -14.5846   20.5548   15.4818 C   0  0  0  0  0  0  0  0  0  0  0  0
  -15.2773   28.1478   17.7165 C   0  0  0  0  0  0  0  0  0  0  0  0
  -15.7909   26.8315   17.7506 C   0  0  0  0  0  0  0  0  0  0  0  0
  -14.7525   24.6137   16.9975 C   0  0  0  0  0  0  0  0  0  0  0  0
  -13.5889   24.0276   16.4292 C   0  0  0  0  0  0  0  0  0  0  0  0
  -12.4885   24.8498   16.0614 C   0  0  0  0  0  0  0  0  0  0  0  0
  -12.5515   26.2550   16.2640 C   0  0  0  0  0  0  0  0  0  0  0  0
  -13.7180   26.8400   16.8488 C   0  0  0  0  0  0  0  0  0  0  0  0
  -14.8079   26.0282   17.2128 C   0  0  0  0  0  0  0  0  0  0  0  0
  1  6  1  0  0  0  0
  2  4  1  0  0  0  0
  3  7  1  0  0  0  0
  4  5  1  0  0  0  0
  6  2  1  0  0  0  0
  7  8  1  0  0  0  0
  8  9  1  0  0  0  0
  9 10  1  0  0  0  0
 10 11  1  0  0  0  0
 10 12  1  0  0  0  0
 11 13  1  0  0  0  0
 13 15  1  0  0  0  0
 14 12  1  0  0  0  0
 15 14  1  0  0  0  0
 16 18  2  0  0  0  0
 16 22  1  0  0  0  0
 17 23  1  0  0  0  0
 17 29  1  0  0  0  0
 18 19  1  0  0  0  0
 18 26  1  0  0  0  0
 19 20  2  0  0  0  0
 20  3  1  0  0  0  0
 20 21  1  0  0  0  0
 21  5  1  0  0  0  0
 21 22  2  0  0  0  0
 23 24  2  0  0  0  0
 24 30  1  0  0  0  0
 25 26  2  0  0  0  0
 25 30  1  0  0  0  0
 26 27  1  0  0  0  0
 27 28  2  0  0  0  0
 28 29  1  0  0  0  0
 29 30  2  0  0  0  0
M  END
>  <CHROM.1>
-83.95027597,73.39906874,-143.95931824,-134.48521987,171.27422642,-108.22187472
-116.00839002,-53.79154956,45.65406208,78.13899192,-146.38532328,-12.34504655
20.99949968,17.70817783,0.75299206,0.69822884,-3.05433623

>  <Name>
1uts_lig

>  <RI>
0

>  <Rbt.Current_Directory>
/home/itssahil/PROJECTS/Mol_Feturizer/New_Systems/rnas/1uts

>  <Rbt.Executable>
rbdock ($Id: //depot/dev/client3/rdock/2013.1/src/exe/rbdock.cxx#4 $)

>  <Rbt.Library>
libRbt.so (2013.1, Build901 2013/11/27)

>  <Rbt.Parameter_File>
/export/apps/rDock/src/rDock_2013.1_src/data/scripts/dock_solv.prm

>  <Rbt.Receptor>
prm/blind_docking_40.prm

>  <SCORE>
-11.5128

>  <SCORE.INTER>
-21.055

>  <SCORE.INTER.CONST>
1

>  <SCORE.INTER.POLAR>
-1.4554

>  <SCORE.INTER.ROT>
10

>  <SCORE.INTER.SOLV>
15.7209

>  <SCORE.INTER.VDW>
-24.6923

>  <SCORE.INTER.norm>
-0.701834

>  <SCORE.INTRA>
8.06626

>  <SCORE.INTRA.DIHEDRAL>
6.15899

>  <SCORE.INTRA.DIHEDRAL.0>
18.0451

>  <SCORE.INTRA.POLAR>
0.196815

>  <SCORE.INTRA.POLAR.0>
-0.196815

>  <SCORE.INTRA.REPUL>
0

>  <SCORE.INTRA.REPUL.0>
0

>  <SCORE.INTRA.SOLV>
-0.521595

>  <SCORE.INTRA.SOLV.lig_0>
-14.7906

>  <SCORE.INTRA.VDW>
4.57839

>  <SCORE.INTRA.VDW.0>
-0.411701

>  <SCORE.INTRA.norm>
0.268875

>  <SCORE.RESTR>
1.47593

>  <SCORE.RESTR.CAVITY>
1.47593

>  <SCORE.RESTR.norm>
0.0491976

>  <SCORE.SYSTEM>
0

>  <SCORE.SYSTEM.CONST>
0

>  <SCORE.SYSTEM.DIHEDRAL>
0

>  <SCORE.SYSTEM.SOLV>
0

>  <SCORE.SYSTEM.norm>
0

>  <SCORE.heavy>
30

>  <SCORE.norm>
-0.383761

>  <RMSD>
23.357

$$$$
1uts_lig
 OpenBabel11021811413D
libRbt.so/2013.1/901 2013/11/27
 30 33  0  0  0  0  0  0  0  0999 V2000
  -16.9851   17.7425   15.5869 N   0  0  0  0  0  0  0  0  0  0  0  0
  -14.8986   16.5589   15.0549 C   0  0  0  0  0  0  0  0  0  0  0  0
  -11.6311   19.4934   17.2263 C   0  0  0  0  0  0  0  0  0  0  0  0
  -14.3796   17.8122   14.3442 C   0  0  0  0  0  0  0  0  0  0  0  0
  -13.2425   18.3255   15.0536 O   0  0  0  0  0  0  0  0  0  0  0  0
  -16.4256   16.5184   14.9706 C   0  0  0  0  0  0  0  0  0  0  0  0
  -10.9109   20.3668   18.1805 N   0  0  0  0  0  0  0  0  0  0  0  0
   -9.6063   19.7494   18.5380 C   0  0  0  0  0  0  0  0  0  0  0  0
   -9.8405   18.3785   19.1793 C   0  0  0  0  0  0  0  0  0  0  0  0
   -9.0375   18.2704   20.4180 N   0  0  0  0  0  0  0  0  0  0  0  0
   -7.8279   17.4405   20.1497 C   0  0  0  0  0  0  0  0  0  0  0  0
   -9.8655   17.6512   21.4912 C   0  0  0  0  0  0  0  0  0  0  0  0
   -6.9931   17.3228   21.4352 C   0  0  0  0  0  0  0  0  0  0  0  0
   -9.0294   17.5293   22.7780 C   0  0  0  0  0  0  0  0  0  0  0  0
   -7.8203   16.7024   22.5086 N   0  0  0  0  0  0  0  0  0  0  0  0
  -14.6502   21.8255   15.0673 C   0  0  0  0  0  0  0  0  0  0  0  0
  -15.1090   27.7562   17.4220 N   0  0  0  0  0  0  0  0  0  0  0  0
  -13.9095   22.4189   16.1173 C   0  0  0  0  0  0  0  0  0  0  0  0
  -12.9331   21.6574   16.8131 C   0  0  0  0  0  0  0  0  0  0  0  0
  -12.6949   20.3018   16.4563 C   0  0  0  0  0  0  0  0  0  0  0  0
  -13.4543   19.7005   15.4080 C   0  0  0  0  0  0  0  0  0  0  0  0
  -14.4283   20.4685   14.7129 C   0  0  0  0  0  0  0  0  0  0  0  0
  -16.3266   27.8411   16.7093 C   0  0  0  0  0  0  0  0  0  0  0  0
  -16.6080   26.6265   16.0435 C   0  0  0  0  0  0  0  0  0  0  0  0
  -15.3124   24.4171   15.9809 C   0  0  0  0  0  0  0  0  0  0  0  0
  -14.1509   23.7556   16.4644 C   0  0  0  0  0  0  0  0  0  0  0  0
  -13.2385   24.4496   17.3059 C   0  0  0  0  0  0  0  0  0  0  0  0
  -13.4891   25.8017   17.6645 C   0  0  0  0  0  0  0  0  0  0  0  0
  -14.6657   26.4601   17.1878 C   0  0  0  0  0  0  0  0  0  0  0  0
  -15.5692   25.7753   16.3547 C   0  0  0  0  0  0  0  0  0  0  0  0
  1  6  1  0  0  0  0
  2  4  1  0  0  0  0
  3  7  1  0  0  0  0
  4  5  1  0  0  0  0
  6  2  1  0  0  0  0
  7  8  1  0  0  0  0
  8  9  1  0  0  0  0
  9 10  1  0  0  0  0
 10 11  1  0  0  0  0
 10 12  1  0  0  0  0
 11 13  1  0  0  0  0
 13 15  1  0  0  0  0
 14 12  1  0  0  0  0
 15 14  1  0  0  0  0
 16 18  2  0  0  0  0
 16 22  1  0  0  0  0
 17 23  1  0  0  0  0
 17 29  1  0  0  0  0
 18 19  1  0  0  0  0
 18 26  1  0  0  0  0
 19 20  2  0  0  0  0
 20  3  1  0  0  0  0
 20 21  1  0  0  0  0
 21  5  1  0  0  0  0
 21 22  2  0  0  0  0
 23 24  2  0  0  0  0
 24 30  1  0  0  0  0
 25 26  2  0  0  0  0
 25 30  1  0  0  0  0
 26 27  1  0  0  0  0
 27 28  2  0  0  0  0
 28 29  1  0  0  0  0
 29 30  2  0  0  0  0
M  END
>  <CHROM.1>
-152.89259392,143.71011059,-159.30008394,-124.72883062,-58.33960898,-59.74357320
-132.10333282,-102.25069700,13.76002114,-5.60050117,159.89119857,-12.75744797
20.80301600,17.49131051,2.48698913,-0.73719042,0.20409740

>  <Name>
1uts_lig

>  <RI>
0

>  <Rbt.Current_Directory>
/home/itssahil/PROJECTS/Mol_Feturizer/New_Systems/rnas/1uts

>  <Rbt.Executable>
rbdock ($Id: //depot/dev/client3/rdock/2013.1/src/exe/rbdock.cxx#4 $)

>  <Rbt.Library>
libRbt.so (2013.1, Build901 2013/11/27)

>  <Rbt.Parameter_File>
/export/apps/rDock/src/rDock_2013.1_src/data/scripts/dock_solv.prm

>  <Rbt.Receptor>
prm/blind_docking_40.prm

>  <SCORE>
-9.7512

>  <SCORE.INTER>
-23.445

>  <SCORE.INTER.CONST>
1

>  <SCORE.INTER.POLAR>
-1.54524

>  <SCORE.INTER.ROT>
10

>  <SCORE.INTER.SOLV>
16.307

>  <SCORE.INTER.VDW>
-26.1815

>  <SCORE.INTER.norm>
-0.7815

>  <SCORE.INTRA>
9.79997

>  <SCORE.INTRA.DIHEDRAL>
4.63783

>  <SCORE.INTRA.DIHEDRAL.0>
18.0451

>  <SCORE.INTRA.POLAR>
0.196815

>  <SCORE.INTRA.POLAR.0>
-0.196815

>  <SCORE.INTRA.REPUL>
0

>  <SCORE.INTRA.REPUL.0>
0

>  <SCORE.INTRA.SOLV>
-0.283001

>  <SCORE.INTRA.SOLV.lig_0>
-14.7906

>  <SCORE.INTRA.VDW>
6.95338

>  <SCORE.INTRA.VDW.0>
-0.411701

>  <SCORE.INTRA.norm>
0.326666

>  <SCORE.RESTR>
3.89382

>  <SCORE.RESTR.CAVITY>
3.89382

>  <SCORE.RESTR.norm>
0.129794

>  <SCORE.SYSTEM>
0

>  <SCORE.SYSTEM.CONST>
0

>  <SCORE.SYSTEM.DIHEDRAL>
0

>  <SCORE.SYSTEM.SOLV>
0

>  <SCORE.SYSTEM.norm>
0

>  <SCORE.heavy>
30

>  <SCORE.norm>
-0.32504

>  <RMSD>
23.371

$$$$
1uts_lig
 OpenBabel11021811413D
libRbt.so/2013.1/901 2013/11/27
 30 33  0  0  0  0  0  0  0  0999 V2000
  -14.9744   14.9978   13.3558 N   0  0  0  0  0  0  0  0  0  0  0  0
  -15.1036   16.8163   15.0031 C   0  0  0  0  0  0  0  0  0  0  0  0
  -12.4110   19.7020   17.8848 C   0  0  0  0  0  0  0  0  0  0  0  0
  -14.9344   18.3384   15.0034 C   0  0  0  0  0  0  0  0  0  0  0  0
  -13.5926   18.6682   15.3916 O   0  0  0  0  0  0  0  0  0  0  0  0
  -14.2908   16.2115   13.8569 C   0  0  0  0  0  0  0  0  0  0  0  0
  -10.9529   19.4669   17.7799 N   0  0  0  0  0  0  0  0  0  0  0  0
  -10.4488   18.8741   19.0469 C   0  0  0  0  0  0  0  0  0  0  0  0
   -9.0508   18.2895   18.8248 C   0  0  0  0  0  0  0  0  0  0  0  0
   -8.3324   18.2259   20.1174 N   0  0  0  0  0  0  0  0  0  0  0  0
   -9.1407   17.4376   21.0917 C   0  0  0  0  0  0  0  0  0  0  0  0
   -8.1076   19.6084   20.6264 C   0  0  0  0  0  0  0  0  0  0  0  0
   -8.3994   17.3727   22.4368 C   0  0  0  0  0  0  0  0  0  0  0  0
   -7.3686   19.5445   21.9752 C   0  0  0  0  0  0  0  0  0  0  0  0
   -8.1754   18.7551   22.9470 N   0  0  0  0  0  0  0  0  0  0  0  0
  -13.7629   22.3689   14.6794 C   0  0  0  0  0  0  0  0  0  0  0  0
  -12.8858   28.4589   16.6986 N   0  0  0  0  0  0  0  0  0  0  0  0
  -13.2171   22.9064   15.8695 C   0  0  0  0  0  0  0  0  0  0  0  0
  -12.7813   22.0366   16.9044 C   0  0  0  0  0  0  0  0  0  0  0  0
  -12.8888   20.6274   16.7476 C   0  0  0  0  0  0  0  0  0  0  0  0
  -13.4546   20.0880   15.5534 C   0  0  0  0  0  0  0  0  0  0  0  0
  -13.8862   20.9634   14.5196 C   0  0  0  0  0  0  0  0  0  0  0  0
  -13.5700   28.4923   17.9349 C   0  0  0  0  0  0  0  0  0  0  0  0
  -13.9935   27.1980   18.3130 C   0  0  0  0  0  0  0  0  0  0  0  0
  -13.6822   24.9340   17.1548 C   0  0  0  0  0  0  0  0  0  0  0  0
  -13.1156   24.2969   16.0175 C   0  0  0  0  0  0  0  0  0  0  0  0
  -12.4402   25.0711   15.0343 C   0  0  0  0  0  0  0  0  0  0  0  0
  -12.3300   26.4794   15.1902 C   0  0  0  0  0  0  0  0  0  0  0  0
  -12.8890   27.1157   16.3424 C   0  0  0  0  0  0  0  0  0  0  0  0
  -13.5582   26.3514   17.3158 C   0  0  0  0  0  0  0  0  0  0  0  0
  1  6  1  0  0  0  0
  2  4  1  0  0  0  0
  3  7  1  0  0  0  0
  4  5  1  0  0  0  0
  6  2  1  0  0  0  0
  7  8  1  0  0  0  0
  8  9  1  0  0  0  0
  9 10  1  0  0  0  0
 10 11  1  0  0  0  0
 10 12  1  0  0  0  0
 11 13  1  0  0  0  0
 13 15  1  0  0  0  0
 14 12  1  0  0  0  0
 15 14  1  0  0  0  0
 16 18  2  0  0  0  0
 16 22  1  0  0  0  0
 17 23  1  0  0  0  0
 17 29  1  0  0  0  0
 18 19  1  0  0  0  0
 18 26  1  0  0  0  0
 19 20  2  0  0  0  0
 20  3  1  0  0  0  0
 20 21  1  0  0  0  0
 21  5  1  0  0  0  0
 21 22  2  0  0  0  0
 23 24  2  0  0  0  0
 24 30  1  0  0  0  0
 25 26  2  0  0  0  0
 25 30  1  0  0  0  0
 26 27  1  0  0  0  0
 27 28  2  0  0  0  0
 28 29  1  0  0  0  0
 29 30  2  0  0  0  0
M  END
>  <CHROM.1>
-52.49568152,-69.30398416,165.73541205,-173.15619224,-148.12443856,164.99978134
156.40686866,56.00965096,125.98198049,-84.39002621,128.89736430,-12.06332826
21.12096339,17.36633274,0.99290423,0.85719100,-3.04293229

>  <Name>
1uts_lig

>  <RI>
0

>  <Rbt.Current_Directory>
/home/itssahil/PROJECTS/Mol_Feturizer/New_Systems/rnas/1uts

>  <Rbt.Executable>
rbdock ($Id: //depot/dev/client3/rdock/2013.1/src/exe/rbdock.cxx#4 $)

>  <Rbt.Library>
libRbt.so (2013.1, Build901 2013/11/27)

>  <Rbt.Parameter_File>
/export/apps/rDock/src/rDock_2013.1_src/data/scripts/dock_solv.prm

>  <Rbt.Receptor>
prm/blind_docking_40.prm

>  <SCORE>
-27.4493

>  <SCORE.INTER>
-33.9568

>  <SCORE.INTER.CONST>
1

>  <SCORE.INTER.POLAR>
-3.05762

>  <SCORE.INTER.ROT>
10

>  <SCORE.INTER.SOLV>
15.6585

>  <SCORE.INTER.VDW>
-27.932

>  <SCORE.INTER.norm>
-1.13189

>  <SCORE.INTRA>
1.62852

>  <SCORE.INTRA.DIHEDRAL>
-4.66639

>  <SCORE.INTRA.DIHEDRAL.0>
18.0451

>  <SCORE.INTRA.POLAR>
0.196815

>  <SCORE.INTRA.POLAR.0>
-0.196815

>  <SCORE.INTRA.REPUL>
0

>  <SCORE.INTRA.REPUL.0>
0

>  <SCORE.INTRA.SOLV>
-0.522863

>  <SCORE.INTRA.SOLV.lig_0>
-14.7906

>  <SCORE.INTRA.VDW>
3.55397

>  <SCORE.INTRA.VDW.0>
-0.411701

>  <SCORE.INTRA.norm>
0.054284

>  <SCORE.RESTR>
4.87895

>  <SCORE.RESTR.CAVITY>
4.87895

>  <SCORE.RESTR.norm>
0.162632

>  <SCORE.SYSTEM>
0

>  <SCORE.SYSTEM.CONST>
0

>  <SCORE.SYSTEM.DIHEDRAL>
0

>  <SCORE.SYSTEM.SOLV>
0

>  <SCORE.SYSTEM.norm>
0

>  <SCORE.heavy>
30

>  <SCORE.norm>
-0.914978

>  <RMSD>
23.375

$$$$
1uts_lig
 OpenBabel11021811413D
libRbt.so/2013.1/901 2013/11/27
 30 33  0  0  0  0  0  0  0  0999 V2000
  -17.3119   16.1740   15.9039 N   0  0  0  0  0  0  0  0  0  0  0  0
  -15.2377   16.8893   14.7979 C   0  0  0  0  0  0  0  0  0  0  0  0
  -11.2615   19.7577   16.8547 C   0  0  0  0  0  0  0  0  0  0  0  0
  -14.3983   18.1239   14.4569 C   0  0  0  0  0  0  0  0  0  0  0  0
  -13.6022   18.4873   15.5944 O   0  0  0  0  0  0  0  0  0  0  0  0
  -16.3228   17.2710   15.8064 C   0  0  0  0  0  0  0  0  0  0  0  0
  -10.7753   20.2811   18.1516 N   0  0  0  0  0  0  0  0  0  0  0  0
   -9.5789   19.5120   18.5852 C   0  0  0  0  0  0  0  0  0  0  0  0
  -10.0046   18.3749   19.5187 C   0  0  0  0  0  0  0  0  0  0  0  0
   -9.0114   18.2331   20.6070 N   0  0  0  0  0  0  0  0  0  0  0  0
   -7.8535   17.4320   20.1156 C   0  0  0  0  0  0  0  0  0  0  0  0
   -9.6500   17.5621   21.7744 C   0  0  0  0  0  0  0  0  0  0  0  0
   -6.8215   17.2793   21.2446 C   0  0  0  0  0  0  0  0  0  0  0  0
   -8.6164   17.4052   22.9043 C   0  0  0  0  0  0  0  0  0  0  0  0
   -7.4593   16.6071   22.4120 N   0  0  0  0  0  0  0  0  0  0  0  0
  -14.7217   22.0889   15.5105 C   0  0  0  0  0  0  0  0  0  0  0  0
  -13.9300   28.2800   17.0181 N   0  0  0  0  0  0  0  0  0  0  0  0
  -13.6245   22.7355   16.1278 C   0  0  0  0  0  0  0  0  0  0  0  0
  -12.5066   21.9741   16.5615 C   0  0  0  0  0  0  0  0  0  0  0  0
  -12.4847   20.5647   16.3747 C   0  0  0  0  0  0  0  0  0  0  0  0
  -13.5993   19.9126   15.7667 C   0  0  0  0  0  0  0  0  0  0  0  0
  -14.7142   20.6803   15.3318 C   0  0  0  0  0  0  0  0  0  0  0  0
  -15.1646   28.2789   17.7062 C   0  0  0  0  0  0  0  0  0  0  0  0
  -15.6890   26.9699   17.8009 C   0  0  0  0  0  0  0  0  0  0  0  0
  -14.7525   24.7319   16.9774 C   0  0  0  0  0  0  0  0  0  0  0  0
  -13.6538   24.1253   16.3099 C   0  0  0  0  0  0  0  0  0  0  0  0
  -12.5821   24.9295   15.8337 C   0  0  0  0  0  0  0  0  0  0  0  0
  -12.6086   26.3372   16.0271 C   0  0  0  0  0  0  0  0  0  0  0  0
  -13.7087   26.9428   16.7113 C   0  0  0  0  0  0  0  0  0  0  0  0
  -14.7702   26.1489   17.1826 C   0  0  0  0  0  0  0  0  0  0  0  0
  1  6  1  0  0  0  0
  2  4  1  0  0  0  0
  3  7  1  0  0  0  0
  4  5  1  0  0  0  0
  6  2  1  0  0  0  0
  7  8  1  0  0  0  0
  8  9  1  0  0  0  0
  9 10  1  0  0  0  0
 10 11  1  0  0  0  0
 10 12  1  0  0  0  0
 11 13  1  0  0  0  0
 13 15  1  0  0  0  0
 14 12  1  0  0  0  0
 15 14  1  0  0  0  0
 16 18  2  0  0  0  0
 16 22  1  0  0  0  0
 17 23  1  0  0  0  0
 17 29  1  0  0  0  0
 18 19  1  0  0  0  0
 18 26  1  0  0  0  0
 19 20  2  0  0  0  0
 20  3  1  0  0  0  0
 20 21  1  0  0  0  0
 21  5  1  0  0  0  0
 21 22  2  0  0  0  0
 23 24  2  0  0  0  0
 24 30  1  0  0  0  0
 25 26  2  0  0  0  0
 25 30  1  0  0  0  0
 26 27  1  0  0  0  0
 27 28  2  0  0  0  0
 28 29  1  0  0  0  0
 29 30  2  0  0  0  0
M  END
>  <CHROM.1>
42.54500172,70.05981501,-178.77160365,-138.20131557,167.34211695,-94.28872709
-141.17223416,-81.74689271,53.67718206,39.44814574,-151.48187174,-12.48597938
20.94092883,17.60065519,0.86225552,0.68723512,-3.09422282

>  <Name>
1uts_lig

>  <RI>
0

>  <Rbt.Current_Directory>
/home/itssahil/PROJECTS/Mol_Feturizer/New_Systems/rnas/1uts

>  <Rbt.Executable>
rbdock ($Id: //depot/dev/client3/rdock/2013.1/src/exe/rbdock.cxx#4 $)

>  <Rbt.Library>
libRbt.so (2013.1, Build901 2013/11/27)

>  <Rbt.Parameter_File>
/export/apps/rDock/src/rDock_2013.1_src/data/scripts/dock_solv.prm

>  <Rbt.Receptor>
prm/blind_docking_40.prm

>  <SCORE>
-20.2664

>  <SCORE.INTER>
-26.9506

>  <SCORE.INTER.CONST>
1

>  <SCORE.INTER.POLAR>
-1.61601

>  <SCORE.INTER.ROT>
10

>  <SCORE.INTER.SOLV>
16.0698

>  <SCORE.INTER.VDW>
-28.2036

>  <SCORE.INTER.norm>
-0.898354

>  <SCORE.INTRA>
4.0861

>  <SCORE.INTRA.DIHEDRAL>
1.49239

>  <SCORE.INTRA.DIHEDRAL.0>
18.0451

>  <SCORE.INTRA.POLAR>
0.196815

>  <SCORE.INTRA.POLAR.0>
-0.196815

>  <SCORE.INTRA.REPUL>
0

>  <SCORE.INTRA.REPUL.0>
0

>  <SCORE.INTRA.SOLV>
-0.605149

>  <SCORE.INTRA.SOLV.lig_0>
-14.7906

>  <SCORE.INTRA.VDW>
2.97331

>  <SCORE.INTRA.VDW.0>
-0.411701

>  <SCORE.INTRA.norm>
0.136203

>  <SCORE.RESTR>
2.5981

>  <SCORE.RESTR.CAVITY>
2.5981

>  <SCORE.RESTR.norm>
0.0866034

>  <SCORE.SYSTEM>
0

>  <SCORE.SYSTEM.CONST>
0

>  <SCORE.SYSTEM.DIHEDRAL>
0

>  <SCORE.SYSTEM.SOLV>
0

>  <SCORE.SYSTEM.norm>
0

>  <SCORE.heavy>
30

>  <SCORE.norm>
-0.675547

>  <RMSD>
23.382

$$$$
1uts_lig
 OpenBabel11021811413D
libRbt.so/2013.1/901 2013/11/27
 30 33  0  0  0  0  0  0  0  0999 V2000
  -12.4489   17.1422   11.5571 N   0  0  0  0  0  0  0  0  0  0  0  0
  -13.5394   18.4863   13.3011 C   0  0  0  0  0  0  0  0  0  0  0  0
  -11.9865   20.0082   18.1602 C   0  0  0  0  0  0  0  0  0  0  0  0
  -13.9551   18.3458   14.7683 C   0  0  0  0  0  0  0  0  0  0  0  0
  -12.9120   18.8588   15.6100 O   0  0  0  0  0  0  0  0  0  0  0  0
  -13.4292   17.0991   12.6656 C   0  0  0  0  0  0  0  0  0  0  0  0
  -10.6522   19.5597   17.7014 N   0  0  0  0  0  0  0  0  0  0  0  0
   -9.6718   19.6867   18.8122 C   0  0  0  0  0  0  0  0  0  0  0  0
   -9.1253   18.3044   19.1810 C   0  0  0  0  0  0  0  0  0  0  0  0
   -8.8857   18.2429   20.6404 N   0  0  0  0  0  0  0  0  0  0  0  0
   -7.9751   19.3552   21.0372 C   0  0  0  0  0  0  0  0  0  0  0  0
   -8.2798   16.9261   20.9866 C   0  0  0  0  0  0  0  0  0  0  0  0
   -7.7207   19.2921   22.5519 C   0  0  0  0  0  0  0  0  0  0  0  0
   -8.0212   16.8632   22.5027 C   0  0  0  0  0  0  0  0  0  0  0  0
   -7.1136   17.9758   22.8986 N   0  0  0  0  0  0  0  0  0  0  0  0
  -13.9391   22.4512   15.0887 C   0  0  0  0  0  0  0  0  0  0  0  0
  -14.1821   28.5638   17.1239 N   0  0  0  0  0  0  0  0  0  0  0  0
  -13.5252   23.0384   16.3082 C   0  0  0  0  0  0  0  0  0  0  0  0
  -12.8935   22.2410   17.2994 C   0  0  0  0  0  0  0  0  0  0  0  0
  -12.6727   20.8552   17.0695 C   0  0  0  0  0  0  0  0  0  0  0  0
  -13.1055   20.2617   15.8457 C   0  0  0  0  0  0  0  0  0  0  0  0
  -13.7345   21.0655   14.8559 C   0  0  0  0  0  0  0  0  0  0  0  0
  -12.8152   28.9155   17.0482 C   0  0  0  0  0  0  0  0  0  0  0  0
  -12.0099   27.7722   16.8432 C   0  0  0  0  0  0  0  0  0  0  0  0
  -12.6490   25.3059   16.5730 C   0  0  0  0  0  0  0  0  0  0  0  0
  -13.7476   24.4050   16.5283 C   0  0  0  0  0  0  0  0  0  0  0  0
  -15.0721   24.8932   16.7003 C   0  0  0  0  0  0  0  0  0  0  0  0
  -15.2969   26.2800   16.9141 C   0  0  0  0  0  0  0  0  0  0  0  0
  -14.1907   27.1858   16.9447 C   0  0  0  0  0  0  0  0  0  0  0  0
  -12.8795   26.7046   16.7754 C   0  0  0  0  0  0  0  0  0  0  0  0
  1  6  1  0  0  0  0
  2  4  1  0  0  0  0
  3  7  1  0  0  0  0
  4  5  1  0  0  0  0
  6  2  1  0  0  0  0
  7  8  1  0  0  0  0
  8  9  1  0  0  0  0
  9 10  1  0  0  0  0
 10 11  1  0  0  0  0
 10 12  1  0  0  0  0
 11 13  1  0  0  0  0
 13 15  1  0  0  0  0
 14 12  1  0  0  0  0
 15 14  1  0  0  0  0
 16 18  2  0  0  0  0
 16 22  1  0  0  0  0
 17 23  1  0  0  0  0
 17 29  1  0  0  0  0
 18 19  1  0  0  0  0
 18 26  1  0  0  0  0
 19 20  2  0  0  0  0
 20  3  1  0  0  0  0
 20 21  1  0  0  0  0
 21  5  1  0  0  0  0
 21 22  2  0  0  0  0
 23 24  2  0  0  0  0
 24 30  1  0  0  0  0
 25 26  2  0  0  0  0
 25 30  1  0  0  0  0
 26 27  1  0  0  0  0
 27 28  2  0  0  0  0
 28 29  1  0  0  0  0
 29 30  2  0  0  0  0
M  END
>  <CHROM.1>
-166.87424701,117.06479922,138.15756306,89.28201009,-152.53374394,117.30192799
-145.02223368,-55.73858956,-110.94794358,-112.64472275,149.38933665,-11.85069664
21.34379195,17.36753553,0.58537854,0.93967614,-2.73201032

>  <Name>
1uts_lig

>  <RI>
0

>  <Rbt.Current_Directory>
/home/itssahil/PROJECTS/Mol_Feturizer/New_Systems/rnas/1uts

>  <Rbt.Executable>
rbdock ($Id: //depot/dev/client3/rdock/2013.1/src/exe/rbdock.cxx#4 $)

>  <Rbt.Library>
libRbt.so (2013.1, Build901 2013/11/27)

>  <Rbt.Parameter_File>
/export/apps/rDock/src/rDock_2013.1_src/data/scripts/dock_solv.prm

>  <Rbt.Receptor>
prm/blind_docking_40.prm

>  <SCORE>
-8.81453

>  <SCORE.INTER>
-24.0651

>  <SCORE.INTER.CONST>
1

>  <SCORE.INTER.POLAR>
-1.7265

>  <SCORE.INTER.ROT>
10

>  <SCORE.INTER.SOLV>
14.5501

>  <SCORE.INTER.VDW>
-25.4051

>  <SCORE.INTER.norm>
-0.802171

>  <SCORE.INTRA>
9.90644

>  <SCORE.INTRA.DIHEDRAL>
9.78962

>  <SCORE.INTRA.DIHEDRAL.0>
18.0451

>  <SCORE.INTRA.POLAR>
0.196815

>  <SCORE.INTRA.POLAR.0>
-0.196815

>  <SCORE.INTRA.REPUL>
0

>  <SCORE.INTRA.REPUL.0>
0

>  <SCORE.INTRA.SOLV>
-0.48474

>  <SCORE.INTRA.SOLV.lig_0>
-14.7906

>  <SCORE.INTRA.VDW>
4.58482

>  <SCORE.INTRA.VDW.0>
-0.411701

>  <SCORE.INTRA.norm>
0.330215

>  <SCORE.RESTR>
5.34416

>  <SCORE.RESTR.CAVITY>
5.34416

>  <SCORE.RESTR.norm>
0.178139

>  <SCORE.SYSTEM>
0

>  <SCORE.SYSTEM.CONST>
0

>  <SCORE.SYSTEM.DIHEDRAL>
0

>  <SCORE.SYSTEM.SOLV>
0

>  <SCORE.SYSTEM.norm>
0

>  <SCORE.heavy>
30

>  <SCORE.norm>
-0.293818

>  <RMSD>
23.421

$$$$
1uts_lig
 OpenBabel11021811413D
libRbt.so/2013.1/901 2013/11/27
 30 33  0  0  0  0  0  0  0  0999 V2000
  -16.7484   16.2399   15.1233 N   0  0  0  0  0  0  0  0  0  0  0  0
  -14.4561   16.8518   14.4846 C   0  0  0  0  0  0  0  0  0  0  0  0
  -12.4310   19.7465   17.9948 C   0  0  0  0  0  0  0  0  0  0  0  0
  -14.5825   18.3295   14.8663 C   0  0  0  0  0  0  0  0  0  0  0  0
  -13.3172   18.8072   15.3465 O   0  0  0  0  0  0  0  0  0  0  0  0
  -15.8065   16.3351   13.9852 C   0  0  0  0  0  0  0  0  0  0  0  0
  -11.0079   20.0427   18.2764 N   0  0  0  0  0  0  0  0  0  0  0  0
  -10.3181   18.8047   18.7262 C   0  0  0  0  0  0  0  0  0  0  0  0
   -9.0719   19.1718   19.5372 C   0  0  0  0  0  0  0  0  0  0  0  0
   -8.6357   17.9990   20.3280 N   0  0  0  0  0  0  0  0  0  0  0  0
   -9.5616   17.8112   21.4818 C   0  0  0  0  0  0  0  0  0  0  0  0
   -7.2425   18.2182   20.8095 C   0  0  0  0  0  0  0  0  0  0  0  0
   -9.1094   16.5961   22.3078 C   0  0  0  0  0  0  0  0  0  0  0  0
   -6.7899   17.0037   21.6399 C   0  0  0  0  0  0  0  0  0  0  0  0
   -7.7165   16.8153   22.7907 N   0  0  0  0  0  0  0  0  0  0  0  0
  -13.9782   22.5007   14.9559 C   0  0  0  0  0  0  0  0  0  0  0  0
  -13.7899   28.5202   17.2230 N   0  0  0  0  0  0  0  0  0  0  0  0
  -13.5795   22.9900   16.2227 C   0  0  0  0  0  0  0  0  0  0  0  0
  -13.0794   22.0920   17.2030 C   0  0  0  0  0  0  0  0  0  0  0  0
  -12.9751   20.7035   16.9149 C   0  0  0  0  0  0  0  0  0  0  0  0
  -13.3931   20.2099   15.6426 C   0  0  0  0  0  0  0  0  0  0  0  0
  -13.8899   21.1140   14.6641 C   0  0  0  0  0  0  0  0  0  0  0  0
  -12.4493   28.8107   16.8822 C   0  0  0  0  0  0  0  0  0  0  0  0
  -11.7576   27.6367   16.5070 C   0  0  0  0  0  0  0  0  0  0  0  0
  -12.5579   25.2087   16.3374 C   0  0  0  0  0  0  0  0  0  0  0  0
  -13.6865   24.3601   16.5000 C   0  0  0  0  0  0  0  0  0  0  0  0
  -14.9254   24.9043   16.9375 C   0  0  0  0  0  0  0  0  0  0  0  0
  -15.0351   26.2948   17.2093 C   0  0  0  0  0  0  0  0  0  0  0  0
  -13.9015   27.1483   17.0314 C   0  0  0  0  0  0  0  0  0  0  0  0
  -12.6749   26.6116   16.5993 C   0  0  0  0  0  0  0  0  0  0  0  0
  1  6  1  0  0  0  0
  2  4  1  0  0  0  0
  3  7  1  0  0  0  0
  4  5  1  0  0  0  0
  6  2  1  0  0  0  0
  7  8  1  0  0  0  0
  8  9  1  0  0  0  0
  9 10  1  0  0  0  0
 10 11  1  0  0  0  0
 10 12  1  0  0  0  0
 11 13  1  0  0  0  0
 13 15  1  0  0  0  0
 14 12  1  0  0  0  0
 15 14  1  0  0  0  0
 16 18  2  0  0  0  0
 16 22  1  0  0  0  0
 17 23  1  0  0  0  0
 17 29  1  0  0  0  0
 18 19  1  0  0  0  0
 18 26  1  0  0  0  0
 19 20  2  0  0  0  0
 20  3  1  0  0  0  0
 20 21  1  0  0  0  0
 21  5  1  0  0  0  0
 21 22  2  0  0  0  0
 23 24  2  0  0  0  0
 24 30  1  0  0  0  0
 25 26  2  0  0  0  0
 25 30  1  0  0  0  0
 26 27  1  0  0  0  0
 27 28  2  0  0  0  0
 28 29  1  0  0  0  0
 29 30  2  0  0  0  0
M  END
>  <CHROM.1>
25.04745159,179.44280615,-151.40598533,176.89711307,-70.73640248,-157.20084553
162.31086561,-74.65369834,-96.16798475,-65.87243687,127.79409209,-12.23273039
21.05779624,17.54813882,0.96172427,0.75152219,-3.12266514

>  <Name>
1uts_lig

>  <RI>
0

>  <Rbt.Current_Directory>
/home/itssahil/PROJECTS/Mol_Feturizer/New_Systems/rnas/1uts

>  <Rbt.Executable>
rbdock ($Id: //depot/dev/client3/rdock/2013.1/src/exe/rbdock.cxx#4 $)

>  <Rbt.Library>
libRbt.so (2013.1, Build901 2013/11/27)

>  <Rbt.Parameter_File>
/export/apps/rDock/src/rDock_2013.1_src/data/scripts/dock_solv.prm

>  <Rbt.Receptor>
prm/blind_docking_40.prm

>  <SCORE>
-27.2776

>  <SCORE.INTER>
-31.168

>  <SCORE.INTER.CONST>
1

>  <SCORE.INTER.POLAR>
-2.95892

>  <SCORE.INTER.ROT>
10

>  <SCORE.INTER.SOLV>
15.0958

>  <SCORE.INTER.VDW>
-26.2142

>  <SCORE.INTER.norm>
-1.03893

>  <SCORE.INTRA>
0.238362

>  <SCORE.INTRA.DIHEDRAL>
-2.41589

>  <SCORE.INTRA.DIHEDRAL.0>
18.0451

>  <SCORE.INTRA.POLAR>
0.196815

>  <SCORE.INTRA.POLAR.0>
-0.196815

>  <SCORE.INTRA.REPUL>
0

>  <SCORE.INTRA.REPUL.0>
0

>  <SCORE.INTRA.SOLV>
-0.549903

>  <SCORE.INTRA.SOLV.lig_0>
-14.7906

>  <SCORE.INTRA.VDW>
1.05209

>  <SCORE.INTRA.VDW.0>
-0.411701

>  <SCORE.INTRA.norm>
0.00794539

>  <SCORE.RESTR>
3.65196

>  <SCORE.RESTR.CAVITY>
3.65196

>  <SCORE.RESTR.norm>
0.121732

>  <SCORE.SYSTEM>
0

>  <SCORE.SYSTEM.CONST>
0

>  <SCORE.SYSTEM.DIHEDRAL>
0

>  <SCORE.SYSTEM.SOLV>
0

>  <SCORE.SYSTEM.norm>
0

>  <SCORE.heavy>
30

>  <SCORE.norm>
-0.909255

>  <RMSD>
23.427

$$$$
1uts_lig
 OpenBabel11021811413D
libRbt.so/2013.1/901 2013/11/27
 30 33  0  0  0  0  0  0  0  0999 V2000
  -17.6262   15.9367   15.6922 N   0  0  0  0  0  0  0  0  0  0  0  0
  -15.5349   16.9371   14.8781 C   0  0  0  0  0  0  0  0  0  0  0  0
  -11.7992   19.4291   17.1919 C   0  0  0  0  0  0  0  0  0  0  0  0
  -14.6832   18.2098   14.8831 C   0  0  0  0  0  0  0  0  0  0  0  0
  -14.4713   18.6357   16.2371 O   0  0  0  0  0  0  0  0  0  0  0  0
  -16.8000   17.1650   15.7074 C   0  0  0  0  0  0  0  0  0  0  0  0
  -10.8034   20.0741   18.0776 N   0  0  0  0  0  0  0  0  0  0  0  0
   -9.7840   19.0757   18.4959 C   0  0  0  0  0  0  0  0  0  0  0  0
   -8.9778   19.6227   19.6775 C   0  0  0  0  0  0  0  0  0  0  0  0
   -8.3594   18.4979   20.4147 N   0  0  0  0  0  0  0  0  0  0  0  0
   -9.4229   17.7301   21.1241 C   0  0  0  0  0  0  0  0  0  0  0  0
   -7.3661   19.0321   21.3887 C   0  0  0  0  0  0  0  0  0  0  0  0
   -8.7838   16.5631   21.8941 C   0  0  0  0  0  0  0  0  0  0  0  0
   -6.7281   17.8647   22.1630 C   0  0  0  0  0  0  0  0  0  0  0  0
   -7.7911   17.0969   22.8693 N   0  0  0  0  0  0  0  0  0  0  0  0
  -14.7720   22.3812   15.9028 C   0  0  0  0  0  0  0  0  0  0  0  0
  -12.4336   28.3083   16.8071 N   0  0  0  0  0  0  0  0  0  0  0  0
  -13.5056   22.8048   16.3719 C   0  0  0  0  0  0  0  0  0  0  0  0
  -12.5471   21.8430   16.7885 C   0  0  0  0  0  0  0  0  0  0  0  0
  -12.8544   20.4557   16.7330 C   0  0  0  0  0  0  0  0  0  0  0  0
  -14.1379   20.0316   16.2749 C   0  0  0  0  0  0  0  0  0  0  0  0
  -15.0923   20.9988   15.8563 C   0  0  0  0  0  0  0  0  0  0  0  0
  -13.2782   28.5643   17.9111 C   0  0  0  0  0  0  0  0  0  0  0  0
  -13.9502   27.3888   18.3163 C   0  0  0  0  0  0  0  0  0  0  0  0
  -13.8309   24.9978   17.4036 C   0  0  0  0  0  0  0  0  0  0  0  0
  -13.2104   24.1743   16.4252 C   0  0  0  0  0  0  0  0  0  0  0  0
  -12.2849   24.7404   15.5058 C   0  0  0  0  0  0  0  0  0  0  0  0
  -11.9796   26.1270   15.5668 C   0  0  0  0  0  0  0  0  0  0  0  0
  -12.5950   26.9502   16.5611 C   0  0  0  0  0  0  0  0  0  0  0  0
  -13.5112   26.3920   17.4712 C   0  0  0  0  0  0  0  0  0  0  0  0
  1  6  1  0  0  0  0
  2  4  1  0  0  0  0
  3  7  1  0  0  0  0
  4  5  1  0  0  0  0
  6  2  1  0  0  0  0
  7  8  1  0  0  0  0
  8  9  1  0  0  0  0
  9 10  1  0  0  0  0
 10 11  1  0  0  0  0
 10 12  1  0  0  0  0
 11 13  1  0  0  0  0
 13 15  1  0  0  0  0
 14 12  1  0  0  0  0
 15 14  1  0  0  0  0
 16 18  2  0  0  0  0
 16 22  1  0  0  0  0
 17 23  1  0  0  0  0
 17 29  1  0  0  0  0
 18 19  1  0  0  0  0
 18 26  1  0  0  0  0
 19 20  2  0  0  0  0
 20  3  1  0  0  0  0
 20 21  1  0  0  0  0
 21  5  1  0  0  0  0
 21 22  2  0  0  0  0
 23 24  2  0  0  0  0
 24 30  1  0  0  0  0
 25 26  2  0  0  0  0
 25 30  1  0  0  0  0
 26 27  1  0  0  0  0
 27 28  2  0  0  0  0
 28 29  1  0  0  0  0
 29 30  2  0  0  0  0
M  END
>  <CHROM.1>
42.50959504,52.23316698,-179.24376275,-158.32225852,179.56695498,-165.35557104
158.24366353,-70.15903212,71.75102304,20.71276082,-115.46932719,-12.25478126
21.07012879,17.74810368,0.99052423,0.64896742,3.05151953

>  <Name>
1uts_lig

>  <RI>
0

>  <Rbt.Current_Directory>
/home/itssahil/PROJECTS/Mol_Feturizer/New_Systems/rnas/1uts

>  <Rbt.Executable>
rbdock ($Id: //depot/dev/client3/rdock/2013.1/src/exe/rbdock.cxx#4 $)

>  <Rbt.Library>
libRbt.so (2013.1, Build901 2013/11/27)

>  <Rbt.Parameter_File>
/export/apps/rDock/src/rDock_2013.1_src/data/scripts/dock_solv.prm

>  <Rbt.Receptor>
prm/blind_docking_40.prm

>  <SCORE>
-21.7037

>  <SCORE.INTER>
-24.3316

>  <SCORE.INTER.CONST>
1

>  <SCORE.INTER.POLAR>
-2.78418

>  <SCORE.INTER.ROT>
10

>  <SCORE.INTER.SOLV>
14.785

>  <SCORE.INTER.VDW>
-22.1355

>  <SCORE.INTER.norm>
-0.811055

>  <SCORE.INTRA>
-0.503252

>  <SCORE.INTRA.DIHEDRAL>
-3.69677

>  <SCORE.INTRA.DIHEDRAL.0>
18.0451

>  <SCORE.INTRA.POLAR>
0.196815

>  <SCORE.INTRA.POLAR.0>
-0.196815

>  <SCORE.INTRA.REPUL>
0

>  <SCORE.INTRA.REPUL.0>
0

>  <SCORE.INTRA.SOLV>
-0.578067

>  <SCORE.INTRA.SOLV.lig_0>
-14.7906

>  <SCORE.INTRA.VDW>
0.964993

>  <SCORE.INTRA.VDW.0>
-0.411701

>  <SCORE.INTRA.norm>
-0.0167751

>  <SCORE.RESTR>
3.13117

>  <SCORE.RESTR.CAVITY>
3.13117

>  <SCORE.RESTR.norm>
0.104372

>  <SCORE.SYSTEM>
0

>  <SCORE.SYSTEM.CONST>
0

>  <SCORE.SYSTEM.DIHEDRAL>
0

>  <SCORE.SYSTEM.SOLV>
0

>  <SCORE.SYSTEM.norm>
0

>  <SCORE.heavy>
30

>  <SCORE.norm>
-0.723457

>  <RMSD>
23.435

$$$$
1uts_lig
 OpenBabel11021811413D
libRbt.so/2013.1/901 2013/11/27
 30 33  0  0  0  0  0  0  0  0999 V2000
  -17.3722   16.4722   14.9428 N   0  0  0  0  0  0  0  0  0  0  0  0
  -15.1458   17.4642   15.2533 C   0  0  0  0  0  0  0  0  0  0  0  0
  -12.0812   19.8380   18.0266 C   0  0  0  0  0  0  0  0  0  0  0  0
  -14.0221   18.2161   14.5342 C   0  0  0  0  0  0  0  0  0  0  0  0
  -13.0730   18.6912   15.5003 O   0  0  0  0  0  0  0  0  0  0  0  0
  -16.1855   16.9993   14.2319 C   0  0  0  0  0  0  0  0  0  0  0  0
  -10.7071   19.5145   17.5802 N   0  0  0  0  0  0  0  0  0  0  0  0
  -10.0559   18.6189   18.5726 C   0  0  0  0  0  0  0  0  0  0  0  0
   -9.1295   19.4358   19.4780 C   0  0  0  0  0  0  0  0  0  0  0  0
   -8.4753   18.5357   20.4540 N   0  0  0  0  0  0  0  0  0  0  0  0
   -7.5566   17.6098   19.7311 C   0  0  0  0  0  0  0  0  0  0  0  0
   -9.5166   17.7650   21.1907 C   0  0  0  0  0  0  0  0  0  0  0  0
   -6.8781   16.6706   20.7414 C   0  0  0  0  0  0  0  0  0  0  0  0
   -8.8382   16.8215   22.2001 C   0  0  0  0  0  0  0  0  0  0  0  0
   -7.9191   15.8987   21.4776 N   0  0  0  0  0  0  0  0  0  0  0  0
  -14.1457   22.2767   15.0258 C   0  0  0  0  0  0  0  0  0  0  0  0
  -14.7871   28.3281   16.9920 N   0  0  0  0  0  0  0  0  0  0  0  0
  -13.7005   22.8624   16.2349 C   0  0  0  0  0  0  0  0  0  0  0  0
  -13.0326   22.0663   17.2032 C   0  0  0  0  0  0  0  0  0  0  0  0
  -12.8070   20.6835   16.9607 C   0  0  0  0  0  0  0  0  0  0  0  0
  -13.2712   20.0914   15.7479 C   0  0  0  0  0  0  0  0  0  0  0  0
  -13.9365   20.8939   14.7808 C   0  0  0  0  0  0  0  0  0  0  0  0
  -15.5811   28.5102   15.8369 C   0  0  0  0  0  0  0  0  0  0  0  0
  -15.6807   27.3096   15.0979 C   0  0  0  0  0  0  0  0  0  0  0  0
  -14.7083   24.9832   15.5521 C   0  0  0  0  0  0  0  0  0  0  0  0
  -13.9278   24.2261   16.4676 C   0  0  0  0  0  0  0  0  0  0  0  0
  -13.3843   24.8525   17.6228 C   0  0  0  0  0  0  0  0  0  0  0  0
  -13.6232   26.2328   17.8624 C   0  0  0  0  0  0  0  0  0  0  0  0
  -14.4204   26.9884   16.9467 C   0  0  0  0  0  0  0  0  0  0  0  0
  -14.9584   26.3706   15.8030 C   0  0  0  0  0  0  0  0  0  0  0  0
  1  6  1  0  0  0  0
  2  4  1  0  0  0  0
  3  7  1  0  0  0  0
  4  5  1  0  0  0  0
  6  2  1  0  0  0  0
  7  8  1  0  0  0  0
  8  9  1  0  0  0  0
  9 10  1  0  0  0  0
 10 11  1  0  0  0  0
 10 12  1  0  0  0  0
 11 13  1  0  0  0  0
 13 15  1  0  0  0  0
 14 12  1  0  0  0  0
 15 14  1  0  0  0  0
 16 18  2  0  0  0  0
 16 22  1  0  0  0  0
 17 23  1  0  0  0  0
 17 29  1  0  0  0  0
 18 19  1  0  0  0  0
 18 26  1  0  0  0  0
 19 20  2  0  0  0  0
 20  3  1  0  0  0  0
 20 21  1  0  0  0  0
 21  5  1  0  0  0  0
 21 22  2  0  0  0  0
 23 24  2  0  0  0  0
 24 30  1  0  0  0  0
 25 26  2  0  0  0  0
 25 30  1  0  0  0  0
 26 27  1  0  0  0  0
 27 28  2  0  0  0  0
 28 29  1  0  0  0  0
 29 30  2  0  0  0  0
M  END
>  <CHROM.1>
49.13631121,177.98815486,-175.94872476,-101.81953156,-170.79044457,-99.92615357
-179.45388159,66.49066440,5.83897268,-107.11762229,157.75983707,-12.56182869
20.96803687,17.32299514,0.81687195,0.70036047,-3.03484923

>  <Name>
1uts_lig

>  <RI>
0

>  <Rbt.Current_Directory>
/home/itssahil/PROJECTS/Mol_Feturizer/New_Systems/rnas/1uts

>  <Rbt.Executable>
rbdock ($Id: //depot/dev/client3/rdock/2013.1/src/exe/rbdock.cxx#4 $)

>  <Rbt.Library>
libRbt.so (2013.1, Build901 2013/11/27)

>  <Rbt.Parameter_File>
/export/apps/rDock/src/rDock_2013.1_src/data/scripts/dock_solv.prm

>  <Rbt.Receptor>
prm/blind_docking_40.prm

>  <SCORE>
-14.0415

>  <SCORE.INTER>
-23.7323

>  <SCORE.INTER.CONST>
1

>  <SCORE.INTER.POLAR>
-3.1165

>  <SCORE.INTER.ROT>
10

>  <SCORE.INTER.SOLV>
14.9204

>  <SCORE.INTER.VDW>
-20.6734

>  <SCORE.INTER.norm>
-0.791077

>  <SCORE.INTRA>
4.28063

>  <SCORE.INTRA.DIHEDRAL>
-7.48683

>  <SCORE.INTRA.DIHEDRAL.0>
18.0451

>  <SCORE.INTRA.POLAR>
0.196815

>  <SCORE.INTRA.POLAR.0>
-0.196815

>  <SCORE.INTRA.REPUL>
0

>  <SCORE.INTRA.REPUL.0>
0

>  <SCORE.INTRA.SOLV>
-0.503913

>  <SCORE.INTRA.SOLV.lig_0>
-14.7906

>  <SCORE.INTRA.VDW>
7.60683

>  <SCORE.INTRA.VDW.0>
-0.411701

>  <SCORE.INTRA.norm>
0.142688

>  <SCORE.RESTR>
5.41015

>  <SCORE.RESTR.CAVITY>
5.41015

>  <SCORE.RESTR.norm>
0.180338

>  <SCORE.SYSTEM>
0

>  <SCORE.SYSTEM.CONST>
0

>  <SCORE.SYSTEM.DIHEDRAL>
0

>  <SCORE.SYSTEM.SOLV>
0

>  <SCORE.SYSTEM.norm>
0

>  <SCORE.heavy>
30

>  <SCORE.norm>
-0.468051

>  <RMSD>
23.444

$$$$
1uts_lig
 OpenBabel11021811413D
libRbt.so/2013.1/901 2013/11/27
 30 33  0  0  0  0  0  0  0  0999 V2000
  -17.5831   16.9842   15.9725 N   0  0  0  0  0  0  0  0  0  0  0  0
  -15.3691   16.7992   14.9231 C   0  0  0  0  0  0  0  0  0  0  0  0
  -11.9668   19.5536   17.6950 C   0  0  0  0  0  0  0  0  0  0  0  0
  -15.0973   18.3063   14.9352 C   0  0  0  0  0  0  0  0  0  0  0  0
  -13.9350   18.5741   15.7335 O   0  0  0  0  0  0  0  0  0  0  0  0
  -16.2228   16.4237   16.1357 C   0  0  0  0  0  0  0  0  0  0  0  0
  -10.6607   20.1641   18.0319 N   0  0  0  0  0  0  0  0  0  0  0  0
   -9.6689   19.0955   18.3241 C   0  0  0  0  0  0  0  0  0  0  0  0
  -10.0658   18.3569   19.6057 C   0  0  0  0  0  0  0  0  0  0  0  0
   -8.8630   18.1360   20.4396 N   0  0  0  0  0  0  0  0  0  0  0  0
   -9.2523   17.4107   21.6830 C   0  0  0  0  0  0  0  0  0  0  0  0
   -8.2464   19.4505   20.7756 C   0  0  0  0  0  0  0  0  0  0  0  0
   -8.0060   17.1829   22.5536 C   0  0  0  0  0  0  0  0  0  0  0  0
   -7.0004   19.2238   21.6505 C   0  0  0  0  0  0  0  0  0  0  0  0
   -7.3896   18.4973   22.8910 N   0  0  0  0  0  0  0  0  0  0  0  0
  -14.2864   22.2882   15.1739 C   0  0  0  0  0  0  0  0  0  0  0  0
  -12.7934   28.3466   16.8499 N   0  0  0  0  0  0  0  0  0  0  0  0
  -13.3634   22.8000   16.1170 C   0  0  0  0  0  0  0  0  0  0  0  0
  -12.6153   21.9083   16.9311 C   0  0  0  0  0  0  0  0  0  0  0  0
  -12.7883   20.5031   16.7997 C   0  0  0  0  0  0  0  0  0  0  0  0
  -13.7314   19.9896   15.8595 C   0  0  0  0  0  0  0  0  0  0  0  0
  -14.4752   20.8869   15.0450 C   0  0  0  0  0  0  0  0  0  0  0  0
  -13.5346   28.4417   18.0496 C   0  0  0  0  0  0  0  0  0  0  0  0
  -14.0408   27.1787   18.4320 C   0  0  0  0  0  0  0  0  0  0  0  0
  -13.7879   24.8765   17.3365 C   0  0  0  0  0  0  0  0  0  0  0  0
  -13.1993   24.1867   16.2419 C   0  0  0  0  0  0  0  0  0  0  0  0
  -12.4385   24.9043   15.2783 C   0  0  0  0  0  0  0  0  0  0  0  0
  -12.2652   26.3085   15.4112 C   0  0  0  0  0  0  0  0  0  0  0  0
  -12.8469   26.9975   16.5211 C   0  0  0  0  0  0  0  0  0  0  0  0
  -13.6005   26.2893   17.4750 C   0  0  0  0  0  0  0  0  0  0  0  0
  1  6  1  0  0  0  0
  2  4  1  0  0  0  0
  3  7  1  0  0  0  0
  4  5  1  0  0  0  0
  6  2  1  0  0  0  0
  7  8  1  0  0  0  0
  8  9  1  0  0  0  0
  9 10  1  0  0  0  0
 10 11  1  0  0  0  0
 10 12  1  0  0  0  0
 11 13  1  0  0  0  0
 13 15  1  0  0  0  0
 14 12  1  0  0  0  0
 15 14  1  0  0  0  0
 16 18  2  0  0  0  0
 16 22  1  0  0  0  0
 17 23  1  0  0  0  0
 17 29  1  0  0  0  0
 18 19  1  0  0  0  0
 18 26  1  0  0  0  0
 19 20  2  0  0  0  0
 20  3  1  0  0  0  0
 20 21  1  0  0  0  0
 21  5  1  0  0  0  0
 21 22  2  0  0  0  0
 23 24  2  0  0  0  0
 24 30  1  0  0  0  0
 25 26  2  0  0  0  0
 25 30  1  0  0  0  0
 26 27  1  0  0  0  0
 27 28  2  0  0  0  0
 28 29  1  0  0  0  0
 29 30  2  0  0  0  0
M  END
>  <CHROM.1>
-50.43784951,86.50933151,-154.19577591,-174.76731305,68.91091395,-66.66621484
-136.85176568,-179.71497985,103.18544812,-30.17637811,168.60220579,-12.25917735
21.15899154,17.69631406,0.95217402,0.69484660,3.07278160

>  <Name>
1uts_lig

>  <RI>
0

>  <Rbt.Current_Directory>
/home/itssahil/PROJECTS/Mol_Feturizer/New_Systems/rnas/1uts

>  <Rbt.Executable>
rbdock ($Id: //depot/dev/client3/rdock/2013.1/src/exe/rbdock.cxx#4 $)

>  <Rbt.Library>
libRbt.so (2013.1, Build901 2013/11/27)

>  <Rbt.Parameter_File>
/export/apps/rDock/src/rDock_2013.1_src/data/scripts/dock_solv.prm

>  <Rbt.Receptor>
prm/blind_docking_40.prm

>  <SCORE>
-24.961

>  <SCORE.INTER>
-31.5365

>  <SCORE.INTER.CONST>
1

>  <SCORE.INTER.POLAR>
-2.30225

>  <SCORE.INTER.ROT>
10

>  <SCORE.INTER.SOLV>
13.9965

>  <SCORE.INTER.VDW>
-28.2823

>  <SCORE.INTER.norm>
-1.05122

>  <SCORE.INTRA>
4.64288

>  <SCORE.INTRA.DIHEDRAL>
-3.64602

>  <SCORE.INTRA.DIHEDRAL.0>
18.0451

>  <SCORE.INTRA.POLAR>
0.196815

>  <SCORE.INTRA.POLAR.0>
-0.196815

>  <SCORE.INTRA.REPUL>
0

>  <SCORE.INTRA.REPUL.0>
0

>  <SCORE.INTRA.SOLV>
-0.408284

>  <SCORE.INTRA.SOLV.lig_0>
-14.7906

>  <SCORE.INTRA.VDW>
6.00086

>  <SCORE.INTRA.VDW.0>
-0.411701

>  <SCORE.INTRA.norm>
0.154763

>  <SCORE.RESTR>
1.9326

>  <SCORE.RESTR.CAVITY>
1.9326

>  <SCORE.RESTR.norm>
0.06442

>  <SCORE.SYSTEM>
0

>  <SCORE.SYSTEM.CONST>
0

>  <SCORE.SYSTEM.DIHEDRAL>
0

>  <SCORE.SYSTEM.SOLV>
0

>  <SCORE.SYSTEM.norm>
0

>  <SCORE.heavy>
30

>  <SCORE.norm>
-0.832033

>  <RMSD>
23.475

$$$$
1uts_lig
 OpenBabel11021811413D
libRbt.so/2013.1/901 2013/11/27
 30 33  0  0  0  0  0  0  0  0999 V2000
  -17.0656   17.4554   14.9688 N   0  0  0  0  0  0  0  0  0  0  0  0
  -15.0638   17.8480   13.5993 C   0  0  0  0  0  0  0  0  0  0  0  0
  -12.0526   19.4805   17.3197 C   0  0  0  0  0  0  0  0  0  0  0  0
  -14.1882   17.5565   14.8214 C   0  0  0  0  0  0  0  0  0  0  0  0
  -13.0050   18.3667   14.7637 O   0  0  0  0  0  0  0  0  0  0  0  0
  -16.3778   17.0733   13.7149 C   0  0  0  0  0  0  0  0  0  0  0  0
  -10.7154   20.0865   17.5116 N   0  0  0  0  0  0  0  0  0  0  0  0
   -9.7716   19.0626   18.0330 C   0  0  0  0  0  0  0  0  0  0  0  0
  -10.2485   18.5680   19.4017 C   0  0  0  0  0  0  0  0  0  0  0  0
   -9.0763   18.2143   20.2335 N   0  0  0  0  0  0  0  0  0  0  0  0
   -9.5427   17.5489   21.4839 C   0  0  0  0  0  0  0  0  0  0  0  0
   -8.3090   19.4502   20.5571 C   0  0  0  0  0  0  0  0  0  0  0  0
   -8.3279   17.1835   22.3523 C   0  0  0  0  0  0  0  0  0  0  0  0
   -7.0944   19.0860   21.4298 C   0  0  0  0  0  0  0  0  0  0  0  0
   -7.5608   18.4193   22.6773 N   0  0  0  0  0  0  0  0  0  0  0  0
  -14.3988   21.8611   14.4838 C   0  0  0  0  0  0  0  0  0  0  0  0
  -15.1449   27.7560   17.0789 N   0  0  0  0  0  0  0  0  0  0  0  0
  -13.9755   22.4282   15.7096 C   0  0  0  0  0  0  0  0  0  0  0  0
  -13.2159   21.6511   16.6242 C   0  0  0  0  0  0  0  0  0  0  0  0
  -12.8766   20.3062   16.3112 C   0  0  0  0  0  0  0  0  0  0  0  0
  -13.3184   19.7311   15.0819 C   0  0  0  0  0  0  0  0  0  0  0  0
  -14.0759   20.5148   14.1688 C   0  0  0  0  0  0  0  0  0  0  0  0
  -14.2815   27.8433   18.1946 C   0  0  0  0  0  0  0  0  0  0  0  0
  -13.6136   26.6172   18.4138 C   0  0  0  0  0  0  0  0  0  0  0  0
  -13.7199   24.4041   17.1273 C   0  0  0  0  0  0  0  0  0  0  0  0
  -14.3150   23.7545   16.0119 C   0  0  0  0  0  0  0  0  0  0  0  0
  -15.2495   24.4540   15.1997 C   0  0  0  0  0  0  0  0  0  0  0  0
  -15.5859   25.8013   15.5018 C   0  0  0  0  0  0  0  0  0  0  0  0
  -14.9750   26.4566   16.6164 C   0  0  0  0  0  0  0  0  0  0  0  0
  -14.0507   25.7659   17.4214 C   0  0  0  0  0  0  0  0  0  0  0  0
  1  6  1  0  0  0  0
  2  4  1  0  0  0  0
  3  7  1  0  0  0  0
  4  5  1  0  0  0  0
  6  2  1  0  0  0  0
  7  8  1  0  0  0  0
  8  9  1  0  0  0  0
  9 10  1  0  0  0  0
 10 11  1  0  0  0  0
 10 12  1  0  0  0  0
 11 13  1  0  0  0  0
 13 15  1  0  0  0  0
 14 12  1  0  0  0  0
 15 14  1  0  0  0  0
 16 18  2  0  0  0  0
 16 22  1  0  0  0  0
 17 23  1  0  0  0  0
 17 29  1  0  0  0  0
 18 19  1  0  0  0  0
 18 26  1  0  0  0  0
 19 20  2  0  0  0  0
 20  3  1  0  0  0  0
 20 21  1  0  0  0  0
 21  5  1  0  0  0  0
 21 22  2  0  0  0  0
 23 24  2  0  0  0  0
 24 30  1  0  0  0  0
 25 26  2  0  0  0  0
 25 30  1  0  0  0  0
 26 27  1  0  0  0  0
 27 28  2  0  0  0  0
 28 29  1  0  0  0  0
 29 30  2  0  0  0  0
M  END
>  <CHROM.1>
-178.12619556,-175.36473941,-158.27535716,73.97410454,57.89783799,-62.32622381
-147.89210854,-171.79400707,-169.75334734,-63.01363686,109.65850393,-12.63604479
20.99780415,17.28584144,2.63662339,-0.78449859,0.25198591

>  <Name>
1uts_lig

>  <RI>
0

>  <Rbt.Current_Directory>
/home/itssahil/PROJECTS/Mol_Feturizer/New_Systems/rnas/1uts

>  <Rbt.Executable>
rbdock ($Id: //depot/dev/client3/rdock/2013.1/src/exe/rbdock.cxx#4 $)

>  <Rbt.Library>
libRbt.so (2013.1, Build901 2013/11/27)

>  <Rbt.Parameter_File>
/export/apps/rDock/src/rDock_2013.1_src/data/scripts/dock_solv.prm

>  <Rbt.Receptor>
prm/blind_docking_40.prm

>  <SCORE>
-9.47069

>  <SCORE.INTER>
-14.5263

>  <SCORE.INTER.CONST>
1

>  <SCORE.INTER.POLAR>
-0.991621

>  <SCORE.INTER.ROT>
10

>  <SCORE.INTER.SOLV>
13.8998

>  <SCORE.INTER.VDW>
-21.2787

>  <SCORE.INTER.norm>
-0.484209

>  <SCORE.INTRA>
1.83298

>  <SCORE.INTRA.DIHEDRAL>
-7.64212

>  <SCORE.INTRA.DIHEDRAL.0>
18.0451

>  <SCORE.INTRA.POLAR>
0.196815

>  <SCORE.INTRA.POLAR.0>
-0.196815

>  <SCORE.INTRA.REPUL>
0

>  <SCORE.INTRA.REPUL.0>
0

>  <SCORE.INTRA.SOLV>
-0.443396

>  <SCORE.INTRA.SOLV.lig_0>
-14.7906

>  <SCORE.INTRA.VDW>
5.20656

>  <SCORE.INTRA.VDW.0>
-0.411701

>  <SCORE.INTRA.norm>
0.0610992

>  <SCORE.RESTR>
3.22259

>  <SCORE.RESTR.CAVITY>
3.22259

>  <SCORE.RESTR.norm>
0.10742

>  <SCORE.SYSTEM>
0

>  <SCORE.SYSTEM.CONST>
0

>  <SCORE.SYSTEM.DIHEDRAL>
0

>  <SCORE.SYSTEM.SOLV>
0

>  <SCORE.SYSTEM.norm>
0

>  <SCORE.heavy>
30

>  <SCORE.norm>
-0.31569

>  <RMSD>
23.503

$$$$
1uts_lig
 OpenBabel11021811413D
libRbt.so/2013.1/901 2013/11/27
 30 33  0  0  0  0  0  0  0  0999 V2000
  -17.6200   15.9578   14.8725 N   0  0  0  0  0  0  0  0  0  0  0  0
  -15.3112   16.7491   15.1564 C   0  0  0  0  0  0  0  0  0  0  0  0
  -11.3753   19.8165   16.5574 C   0  0  0  0  0  0  0  0  0  0  0  0
  -15.2287   18.2754   15.2502 C   0  0  0  0  0  0  0  0  0  0  0  0
  -13.9935   18.6478   15.8789 O   0  0  0  0  0  0  0  0  0  0  0  0
  -16.3922   16.3562   14.1478 C   0  0  0  0  0  0  0  0  0  0  0  0
  -11.1974   19.6800   18.0209 N   0  0  0  0  0  0  0  0  0  0  0  0
   -9.8295   19.1766   18.3144 C   0  0  0  0  0  0  0  0  0  0  0  0
   -9.8357   18.3995   19.6341 C   0  0  0  0  0  0  0  0  0  0  0  0
   -8.4531   18.2987   20.1529 N   0  0  0  0  0  0  0  0  0  0  0  0
   -8.3675   17.1560   21.1073 C   0  0  0  0  0  0  0  0  0  0  0  0
   -8.0864   19.5729   20.8331 C   0  0  0  0  0  0  0  0  0  0  0  0
   -6.9336   17.0505   21.6513 C   0  0  0  0  0  0  0  0  0  0  0  0
   -6.6520   19.4671   21.3816 C   0  0  0  0  0  0  0  0  0  0  0  0
   -6.5667   18.3242   22.3328 N   0  0  0  0  0  0  0  0  0  0  0  0
  -14.8720   22.3114   15.6835 C   0  0  0  0  0  0  0  0  0  0  0  0
  -13.2361   28.5008   16.5060 N   0  0  0  0  0  0  0  0  0  0  0  0
  -13.6362   22.9121   16.0229 C   0  0  0  0  0  0  0  0  0  0  0  0
  -12.5072   22.0978   16.3054 C   0  0  0  0  0  0  0  0  0  0  0  0
  -12.6135   20.6811   16.2453 C   0  0  0  0  0  0  0  0  0  0  0  0
  -13.8647   20.0771   15.9188 C   0  0  0  0  0  0  0  0  0  0  0  0
  -14.9907   20.8973   15.6339 C   0  0  0  0  0  0  0  0  0  0  0  0
  -13.4487   28.5714   17.9015 C   0  0  0  0  0  0  0  0  0  0  0  0
  -13.6678   27.2852   18.4449 C   0  0  0  0  0  0  0  0  0  0  0  0
  -13.6977   24.9815   17.3241 C   0  0  0  0  0  0  0  0  0  0  0  0
  -13.5394   24.3095   16.0816 C   0  0  0  0  0  0  0  0  0  0  0  0
  -13.2759   25.0561   14.9004 C   0  0  0  0  0  0  0  0  0  0  0  0
  -13.1688   26.4718   14.9628 C   0  0  0  0  0  0  0  0  0  0  0  0
  -13.3148   27.1439   16.2166 C   0  0  0  0  0  0  0  0  0  0  0  0
  -13.5762   26.4069   17.3862 C   0  0  0  0  0  0  0  0  0  0  0  0
  1  6  1  0  0  0  0
  2  4  1  0  0  0  0
  3  7  1  0  0  0  0
  4  5  1  0  0  0  0
  6  2  1  0  0  0  0
  7  8  1  0  0  0  0
  8  9  1  0  0  0  0
  9 10  1  0  0  0  0
 10 11  1  0  0  0  0
 10 12  1  0  0  0  0
 11 13  1  0  0  0  0
 13 15  1  0  0  0  0
 14 12  1  0  0  0  0
 15 14  1  0  0  0  0
 16 18  2  0  0  0  0
 16 22  1  0  0  0  0
 17 23  1  0  0  0  0
 17 29  1  0  0  0  0
 18 19  1  0  0  0  0
 18 26  1  0  0  0  0
 19 20  2  0  0  0  0
 20  3  1  0  0  0  0
 20 21  1  0  0  0  0
 21  5  1  0  0  0  0
 21 22  2  0  0  0  0
 23 24  2  0  0  0  0
 24 30  1  0  0  0  0
 25 26  2  0  0  0  0
 25 30  1  0  0  0  0
 26 27  1  0  0  0  0
 27 28  2  0  0  0  0
 28 29  1  0  0  0  0
 29 30  2  0  0  0  0
M  END
>  <CHROM.1>
-70.49222975,-163.56376920,-164.65871199,177.19446497,-101.14025654,-152.24364160
-160.99455015,-158.84726249,95.04741831,80.87809161,-167.22245097,-12.25620402
21.15925921,17.41990913,0.84625647,0.65449955,3.13783053

>  <Name>
1uts_lig

>  <RI>
0

>  <Rbt.Current_Directory>
/home/itssahil/PROJECTS/Mol_Feturizer/New_Systems/rnas/1uts

>  <Rbt.Executable>
rbdock ($Id: //depot/dev/client3/rdock/2013.1/src/exe/rbdock.cxx#4 $)

>  <Rbt.Library>
libRbt.so (2013.1, Build901 2013/11/27)

>  <Rbt.Parameter_File>
/export/apps/rDock/src/rDock_2013.1_src/data/scripts/dock_solv.prm

>  <Rbt.Receptor>
prm/blind_docking_40.prm

>  <SCORE>
-14.85

>  <SCORE.INTER>
-21.5211

>  <SCORE.INTER.CONST>
1

>  <SCORE.INTER.POLAR>
-1.0548

>  <SCORE.INTER.ROT>
10

>  <SCORE.INTER.SOLV>
12.4436

>  <SCORE.INTER.VDW>
-25.2459

>  <SCORE.INTER.norm>
-0.717371

>  <SCORE.INTRA>
2.11634

>  <SCORE.INTRA.DIHEDRAL>
-2.41199

>  <SCORE.INTRA.DIHEDRAL.0>
18.0451

>  <SCORE.INTRA.POLAR>
0.196815

>  <SCORE.INTRA.POLAR.0>
-0.196815

>  <SCORE.INTRA.REPUL>
0

>  <SCORE.INTRA.REPUL.0>
0

>  <SCORE.INTRA.SOLV>
-0.580356

>  <SCORE.INTRA.SOLV.lig_0>
-14.7906

>  <SCORE.INTRA.VDW>
2.94334

>  <SCORE.INTRA.VDW.0>
-0.411701

>  <SCORE.INTRA.norm>
0.0705445

>  <SCORE.RESTR>
4.55479

>  <SCORE.RESTR.CAVITY>
4.55479

>  <SCORE.RESTR.norm>
0.151826

>  <SCORE.SYSTEM>
0

>  <SCORE.SYSTEM.CONST>
0

>  <SCORE.SYSTEM.DIHEDRAL>
0

>  <SCORE.SYSTEM.SOLV>
0

>  <SCORE.SYSTEM.norm>
0

>  <SCORE.heavy>
30

>  <SCORE.norm>
-0.495

>  <RMSD>
23.507

$$$$
1uts_lig
 OpenBabel11021811413D
libRbt.so/2013.1/901 2013/11/27
 30 33  0  0  0  0  0  0  0  0999 V2000
  -17.1734   16.1799   15.3643 N   0  0  0  0  0  0  0  0  0  0  0  0
  -14.8261   16.6277   14.7926 C   0  0  0  0  0  0  0  0  0  0  0  0
  -11.1605   19.8399   16.6398 C   0  0  0  0  0  0  0  0  0  0  0  0
  -14.8699   18.0734   15.2960 C   0  0  0  0  0  0  0  0  0  0  0  0
  -13.5305   18.5699   15.4351 O   0  0  0  0  0  0  0  0  0  0  0  0
  -16.2008   16.2332   14.2496 C   0  0  0  0  0  0  0  0  0  0  0  0
  -11.0042   19.8286   18.1120 N   0  0  0  0  0  0  0  0  0  0  0  0
   -9.6807   19.2536   18.4708 C   0  0  0  0  0  0  0  0  0  0  0  0
   -9.8256   18.3451   19.6952 C   0  0  0  0  0  0  0  0  0  0  0  0
   -8.5517   18.3271   20.4487 N   0  0  0  0  0  0  0  0  0  0  0  0
   -8.7191   17.5012   21.6791 C   0  0  0  0  0  0  0  0  0  0  0  0
   -8.1696   19.7223   20.8068 C   0  0  0  0  0  0  0  0  0  0  0  0
   -7.3989   17.4833   22.4665 C   0  0  0  0  0  0  0  0  0  0  0  0
   -6.8496   19.7053   21.5985 C   0  0  0  0  0  0  0  0  0  0  0  0
   -7.0168   18.8784   22.8259 N   0  0  0  0  0  0  0  0  0  0  0  0
  -14.7135   22.1510   15.5221 C   0  0  0  0  0  0  0  0  0  0  0  0
  -13.9795   28.3039   17.1896 N   0  0  0  0  0  0  0  0  0  0  0  0
  -13.6022   22.7966   16.1151 C   0  0  0  0  0  0  0  0  0  0  0  0
  -12.4543   22.0417   16.4752 C   0  0  0  0  0  0  0  0  0  0  0  0
  -12.4164   20.6400   16.2393 C   0  0  0  0  0  0  0  0  0  0  0  0
  -13.5445   19.9884   15.6562 C   0  0  0  0  0  0  0  0  0  0  0  0
  -14.6897   20.7497   15.2948 C   0  0  0  0  0  0  0  0  0  0  0  0
  -15.2495   28.2746   17.8093 C   0  0  0  0  0  0  0  0  0  0  0  0
  -15.7726   26.9617   17.8275 C   0  0  0  0  0  0  0  0  0  0  0  0
  -14.7832   24.7577   16.9747 C   0  0  0  0  0  0  0  0  0  0  0  0
  -13.6474   24.1787   16.3460 C   0  0  0  0  0  0  0  0  0  0  0  0
  -12.5549   25.0024   15.9583 C   0  0  0  0  0  0  0  0  0  0  0  0
  -12.5980   26.4019   16.2013 C   0  0  0  0  0  0  0  0  0  0  0  0
  -13.7361   26.9794   16.8466 C   0  0  0  0  0  0  0  0  0  0  0  0
  -14.8181   26.1662   17.2303 C   0  0  0  0  0  0  0  0  0  0  0  0
  1  6  1  0  0  0  0
  2  4  1  0  0  0  0
  3  7  1  0  0  0  0
  4  5  1  0  0  0  0
  6  2  1  0  0  0  0
  7  8  1  0  0  0  0
  8  9  1  0  0  0  0
  9 10  1  0  0  0  0
 10 11  1  0  0  0  0
 10 12  1  0  0  0  0
 11 13  1  0  0  0  0
 13 15  1  0  0  0  0
 14 12  1  0  0  0  0
 15 14  1  0  0  0  0
 16 18  2  0  0  0  0
 16 22  1  0  0  0  0
 17 23  1  0  0  0  0
 17 29  1  0  0  0  0
 18 19  1  0  0  0  0
 18 26  1  0  0  0  0
 19 20  2  0  0  0  0
 20  3  1  0  0  0  0
 20 21  1  0  0  0  0
 21  5  1  0  0  0  0
 21 22  2  0  0  0  0
 23 24  2  0  0  0  0
 24 30  1  0  0  0  0
 25 26  2  0  0  0  0
 25 30  1  0  0  0  0
 26 27  1  0  0  0  0
 27 28  2  0  0  0  0
 28 29  1  0  0  0  0
 29 30  2  0  0  0  0
M  END
>  <CHROM.1>
50.69967067,-163.24145865,-170.66808046,168.99409299,-67.27192756,-139.67888591
-151.65519446,176.95336939,48.10228086,66.53739018,159.85931033,-12.38495964
21.14894111,17.58531331,2.42330329,-0.69335078,0.10583255

>  <Name>
1uts_lig

>  <RI>
0

>  <Rbt.Current_Directory>
/home/itssahil/PROJECTS/Mol_Feturizer/New_Systems/rnas/1uts

>  <Rbt.Executable>
rbdock ($Id: //depot/dev/client3/rdock/2013.1/src/exe/rbdock.cxx#4 $)

>  <Rbt.Library>
libRbt.so (2013.1, Build901 2013/11/27)

>  <Rbt.Parameter_File>
/export/apps/rDock/src/rDock_2013.1_src/data/scripts/dock_solv.prm

>  <Rbt.Receptor>
prm/blind_docking_40.prm

>  <SCORE>
-16.0981

>  <SCORE.INTER>
-21.8275

>  <SCORE.INTER.CONST>
1

>  <SCORE.INTER.POLAR>
-1.54397

>  <SCORE.INTER.ROT>
10

>  <SCORE.INTER.SOLV>
14.8235

>  <SCORE.INTER.VDW>
-24.6129

>  <SCORE.INTER.norm>
-0.727582

>  <SCORE.INTRA>
2.56119

>  <SCORE.INTRA.DIHEDRAL>
-6.62118

>  <SCORE.INTRA.DIHEDRAL.0>
18.0451

>  <SCORE.INTRA.POLAR>
0.196815

>  <SCORE.INTRA.POLAR.0>
-0.196815

>  <SCORE.INTRA.REPUL>
0

>  <SCORE.INTRA.REPUL.0>
0

>  <SCORE.INTRA.SOLV>
-0.520673

>  <SCORE.INTRA.SOLV.lig_0>
-14.7906

>  <SCORE.INTRA.VDW>
5.46294

>  <SCORE.INTRA.VDW.0>
-0.411701

>  <SCORE.INTRA.norm>
0.0853729

>  <SCORE.RESTR>
3.16821

>  <SCORE.RESTR.CAVITY>
3.16821

>  <SCORE.RESTR.norm>
0.105607

>  <SCORE.SYSTEM>
0

>  <SCORE.SYSTEM.CONST>
0

>  <SCORE.SYSTEM.DIHEDRAL>
0

>  <SCORE.SYSTEM.SOLV>
0

>  <SCORE.SYSTEM.norm>
0

>  <SCORE.heavy>
30

>  <SCORE.norm>
-0.536602

>  <RMSD>
23.527

$$$$
1uts_lig
 OpenBabel11021811413D
libRbt.so/2013.1/901 2013/11/27
 30 33  0  0  0  0  0  0  0  0999 V2000
  -17.0392   16.4162   16.0547 N   0  0  0  0  0  0  0  0  0  0  0  0
  -14.8879   17.0982   15.0831 C   0  0  0  0  0  0  0  0  0  0  0  0
  -12.6812   20.1273   18.4037 C   0  0  0  0  0  0  0  0  0  0  0  0
  -14.3454   18.5027   14.8033 C   0  0  0  0  0  0  0  0  0  0  0  0
  -13.4298   18.8755   15.8437 O   0  0  0  0  0  0  0  0  0  0  0  0
  -16.4065   17.0901   14.8985 C   0  0  0  0  0  0  0  0  0  0  0  0
  -11.6486   19.0947   18.1596 N   0  0  0  0  0  0  0  0  0  0  0  0
  -10.2973   19.6781   18.3703 C   0  0  0  0  0  0  0  0  0  0  0  0
   -9.2931   18.5624   18.6738 C   0  0  0  0  0  0  0  0  0  0  0  0
   -8.9933   18.5503   20.1233 N   0  0  0  0  0  0  0  0  0  0  0  0
   -7.6622   17.9158   20.3455 C   0  0  0  0  0  0  0  0  0  0  0  0
  -10.0570   17.7928   20.8415 C   0  0  0  0  0  0  0  0  0  0  0  0
   -7.3491   17.8980   21.8505 C   0  0  0  0  0  0  0  0  0  0  0  0
   -9.7426   17.7711   22.3482 C   0  0  0  0  0  0  0  0  0  0  0  0
   -8.4119   17.1395   22.5692 N   0  0  0  0  0  0  0  0  0  0  0  0
  -13.3977   22.4966   14.7861 C   0  0  0  0  0  0  0  0  0  0  0  0
  -12.7271   28.7384   16.3933 N   0  0  0  0  0  0  0  0  0  0  0  0
  -13.0574   23.1380   16.0010 C   0  0  0  0  0  0  0  0  0  0  0  0
  -12.8270   22.3643   17.1696 C   0  0  0  0  0  0  0  0  0  0  0  0
  -12.9341   20.9472   17.1225 C   0  0  0  0  0  0  0  0  0  0  0  0
  -13.2933   20.3036   15.9003 C   0  0  0  0  0  0  0  0  0  0  0  0
  -13.5198   21.0830   14.7328 C   0  0  0  0  0  0  0  0  0  0  0  0
  -13.4338   28.8705   17.6102 C   0  0  0  0  0  0  0  0  0  0  0  0
  -13.8675   27.6107   18.0819 C   0  0  0  0  0  0  0  0  0  0  0  0
  -13.5408   25.2617   17.1127 C   0  0  0  0  0  0  0  0  0  0  0  0
  -12.9551   24.5357   16.0402 C   0  0  0  0  0  0  0  0  0  0  0  0
  -12.2597   25.2288   15.0114 C   0  0  0  0  0  0  0  0  0  0  0  0
  -12.1489   26.6449   15.0571 C   0  0  0  0  0  0  0  0  0  0  0  0
  -12.7272   27.3712   16.1448 C   0  0  0  0  0  0  0  0  0  0  0  0
  -13.4161   26.6872   17.1632 C   0  0  0  0  0  0  0  0  0  0  0  0
  1  6  1  0  0  0  0
  2  4  1  0  0  0  0
  3  7  1  0  0  0  0
  4  5  1  0  0  0  0
  6  2  1  0  0  0  0
  7  8  1  0  0  0  0
  8  9  1  0  0  0  0
  9 10  1  0  0  0  0
 10 11  1  0  0  0  0
 10 12  1  0  0  0  0
 11 13  1  0  0  0  0
 13 15  1  0  0  0  0
 14 12  1  0  0  0  0
 15 14  1  0  0  0  0
 16 18  2  0  0  0  0
 16 22  1  0  0  0  0
 17 23  1  0  0  0  0
 17 29  1  0  0  0  0
 18 19  1  0  0  0  0
 18 26  1  0  0  0  0
 19 20  2  0  0  0  0
 20  3  1  0  0  0  0
 20 21  1  0  0  0  0
 21  5  1  0  0  0  0
 21 22  2  0  0  0  0
 23 24  2  0  0  0  0
 24 30  1  0  0  0  0
 25 26  2  0  0  0  0
 25 30  1  0  0  0  0
 26 27  1  0  0  0  0
 27 28  2  0  0  0  0
 28 29  1  0  0  0  0
 29 30  2  0  0  0  0
M  END
>  <CHROM.1>
169.41136275,133.43358337,86.15365580,-158.57386911,-132.50354229,157.53154018
-103.49097393,-156.27949793,135.07774147,-125.74650925,153.32058954,-12.25045059
21.24854622,17.49479110,1.15396808,0.74550980,3.04741974

>  <Name>
1uts_lig

>  <RI>
0

>  <Rbt.Current_Directory>
/home/itssahil/PROJECTS/Mol_Feturizer/New_Systems/rnas/1uts

>  <Rbt.Executable>
rbdock ($Id: //depot/dev/client3/rdock/2013.1/src/exe/rbdock.cxx#4 $)

>  <Rbt.Library>
libRbt.so (2013.1, Build901 2013/11/27)

>  <Rbt.Parameter_File>
/export/apps/rDock/src/rDock_2013.1_src/data/scripts/dock_solv.prm

>  <Rbt.Receptor>
prm/blind_docking_40.prm

>  <SCORE>
-20.4437

>  <SCORE.INTER>
-27.5513

>  <SCORE.INTER.CONST>
1

>  <SCORE.INTER.POLAR>
-2.52016

>  <SCORE.INTER.ROT>
10

>  <SCORE.INTER.SOLV>
15.5742

>  <SCORE.INTER.VDW>
-25.4251

>  <SCORE.INTER.norm>
-0.918378

>  <SCORE.INTRA>
4.13559

>  <SCORE.INTRA.DIHEDRAL>
6.41925

>  <SCORE.INTRA.DIHEDRAL.0>
18.0451

>  <SCORE.INTRA.POLAR>
-0.339557

>  <SCORE.INTRA.POLAR.0>
-0.196815

>  <SCORE.INTRA.REPUL>
0

>  <SCORE.INTRA.REPUL.0>
0

>  <SCORE.INTRA.SOLV>
-0.275678

>  <SCORE.INTRA.SOLV.lig_0>
-14.7906

>  <SCORE.INTRA.VDW>
2.2183

>  <SCORE.INTRA.VDW.0>
-0.411701

>  <SCORE.INTRA.norm>
0.137853

>  <SCORE.RESTR>
2.97204

>  <SCORE.RESTR.CAVITY>
2.97204

>  <SCORE.RESTR.norm>
0.099068

>  <SCORE.SYSTEM>
0

>  <SCORE.SYSTEM.CONST>
0

>  <SCORE.SYSTEM.DIHEDRAL>
0

>  <SCORE.SYSTEM.SOLV>
0

>  <SCORE.SYSTEM.norm>
0

>  <SCORE.heavy>
30

>  <SCORE.norm>
-0.681457

>  <RMSD>
23.545

$$$$
1uts_lig
 OpenBabel11021811413D
libRbt.so/2013.1/901 2013/11/27
 30 33  0  0  0  0  0  0  0  0999 V2000
  -17.8100   17.1248   15.9065 N   0  0  0  0  0  0  0  0  0  0  0  0
  -15.5688   16.7771   14.9612 C   0  0  0  0  0  0  0  0  0  0  0  0
  -11.7286   19.5703   16.8350 C   0  0  0  0  0  0  0  0  0  0  0  0
  -15.2210   18.2674   14.9063 C   0  0  0  0  0  0  0  0  0  0  0  0
  -14.3930   18.6048   16.0290 O   0  0  0  0  0  0  0  0  0  0  0  0
  -16.4867   16.5097   16.1554 C   0  0  0  0  0  0  0  0  0  0  0  0
  -11.0622   20.0345   18.0730 N   0  0  0  0  0  0  0  0  0  0  0  0
  -10.7364   18.8671   18.9344 C   0  0  0  0  0  0  0  0  0  0  0  0
   -9.2220   18.6396   18.9471 C   0  0  0  0  0  0  0  0  0  0  0  0
   -8.7732   18.3886   20.3350 N   0  0  0  0  0  0  0  0  0  0  0  0
   -8.0984   19.6093   20.8626 C   0  0  0  0  0  0  0  0  0  0  0  0
   -7.8368   17.2293   20.3497 C   0  0  0  0  0  0  0  0  0  0  0  0
   -7.6273   19.3511   22.3030 C   0  0  0  0  0  0  0  0  0  0  0  0
   -7.3615   16.9721   21.7910 C   0  0  0  0  0  0  0  0  0  0  0  0
   -6.6898   18.1925   22.3180 N   0  0  0  0  0  0  0  0  0  0  0  0
  -14.9655   22.3239   15.7605 C   0  0  0  0  0  0  0  0  0  0  0  0
  -12.9499   28.3832   16.6128 N   0  0  0  0  0  0  0  0  0  0  0  0
  -13.7050   22.8287   16.1597 C   0  0  0  0  0  0  0  0  0  0  0  0
  -12.6606   21.9310   16.5070 C   0  0  0  0  0  0  0  0  0  0  0  0
  -12.8761   20.5265   16.4520 C   0  0  0  0  0  0  0  0  0  0  0  0
  -14.1530   20.0198   16.0649 C   0  0  0  0  0  0  0  0  0  0  0  0
  -15.1938   20.9232   15.7153 C   0  0  0  0  0  0  0  0  0  0  0  0
  -13.5706   28.5419   17.8727 C   0  0  0  0  0  0  0  0  0  0  0  0
  -14.0645   27.3073   18.3517 C   0  0  0  0  0  0  0  0  0  0  0  0
  -13.9666   24.9598   17.3300 C   0  0  0  0  0  0  0  0  0  0  0  0
  -13.5003   24.2147   16.2129 C   0  0  0  0  0  0  0  0  0  0  0  0
  -12.8203   24.8762   15.1536 C   0  0  0  0  0  0  0  0  0  0  0  0
  -12.6053   26.2797   15.2131 C   0  0  0  0  0  0  0  0  0  0  0  0
  -13.0633   27.0243   16.3448 C   0  0  0  0  0  0  0  0  0  0  0  0
  -13.7368   26.3717   17.3935 C   0  0  0  0  0  0  0  0  0  0  0  0
  1  6  1  0  0  0  0
  2  4  1  0  0  0  0
  3  7  1  0  0  0  0
  4  5  1  0  0  0  0
  6  2  1  0  0  0  0
  7  8  1  0  0  0  0
  8  9  1  0  0  0  0
  9 10  1  0  0  0  0
 10 11  1  0  0  0  0
 10 12  1  0  0  0  0
 11 13  1  0  0  0  0
 13 15  1  0  0  0  0
 14 12  1  0  0  0  0
 15 14  1  0  0  0  0
 16 18  2  0  0  0  0
 16 22  1  0  0  0  0
 17 23  1  0  0  0  0
 17 29  1  0  0  0  0
 18 19  1  0  0  0  0
 18 26  1  0  0  0  0
 19 20  2  0  0  0  0
 20  3  1  0  0  0  0
 20 21  1  0  0  0  0
 21  5  1  0  0  0  0
 21 22  2  0  0  0  0
 23 24  2  0  0  0  0
 24 30  1  0  0  0  0
 25 26  2  0  0  0  0
 25 30  1  0  0  0  0
 26 27  1  0  0  0  0
 27 28  2  0  0  0  0
 28 29  1  0  0  0  0
 29 30  2  0  0  0  0
M  END
>  <CHROM.1>
-55.68646725,67.90513908,140.03628180,-174.83998501,69.00122152,109.20460205
135.24780490,-104.23634313,80.04373695,44.69763818,-141.83592456,-12.36402052
21.17667821,17.59342243,2.26312017,-0.61923663,-0.04969526

>  <Name>
1uts_lig

>  <RI>
0

>  <Rbt.Current_Directory>
/home/itssahil/PROJECTS/Mol_Feturizer/New_Systems/rnas/1uts

>  <Rbt.Executable>
rbdock ($Id: //depot/dev/client3/rdock/2013.1/src/exe/rbdock.cxx#4 $)

>  <Rbt.Library>
libRbt.so (2013.1, Build901 2013/11/27)

>  <Rbt.Parameter_File>
/export/apps/rDock/src/rDock_2013.1_src/data/scripts/dock_solv.prm

>  <Rbt.Receptor>
prm/blind_docking_40.prm

>  <SCORE>
-14.1949

>  <SCORE.INTER>
-21.4181

>  <SCORE.INTER.CONST>
1

>  <SCORE.INTER.POLAR>
-0.882865

>  <SCORE.INTER.ROT>
10

>  <SCORE.INTER.SOLV>
13.0974

>  <SCORE.INTER.VDW>
-25.9683

>  <SCORE.INTER.norm>
-0.713936

>  <SCORE.INTRA>
4.44646

>  <SCORE.INTRA.DIHEDRAL>
3.63743

>  <SCORE.INTRA.DIHEDRAL.0>
18.0451

>  <SCORE.INTRA.POLAR>
0.196815

>  <SCORE.INTRA.POLAR.0>
-0.196815

>  <SCORE.INTRA.REPUL>
0

>  <SCORE.INTRA.REPUL.0>
0

>  <SCORE.INTRA.SOLV>
-0.361245

>  <SCORE.INTRA.SOLV.lig_0>
-14.7906

>  <SCORE.INTRA.VDW>
2.13919

>  <SCORE.INTRA.VDW.0>
-0.411701

>  <SCORE.INTRA.norm>
0.148215

>  <SCORE.RESTR>
2.77673

>  <SCORE.RESTR.CAVITY>
2.77673

>  <SCORE.RESTR.norm>
0.0925576

>  <SCORE.SYSTEM>
0

>  <SCORE.SYSTEM.CONST>
0

>  <SCORE.SYSTEM.DIHEDRAL>
0

>  <SCORE.SYSTEM.SOLV>
0

>  <SCORE.SYSTEM.norm>
0

>  <SCORE.heavy>
30

>  <SCORE.norm>
-0.473163

>  <RMSD>
23.547

$$$$
1uts_lig
 OpenBabel11021811413D
libRbt.so/2013.1/901 2013/11/27
 30 33  0  0  0  0  0  0  0  0999 V2000
  -15.5368   15.9056   14.9743 N   0  0  0  0  0  0  0  0  0  0  0  0
  -14.0282   17.5614   13.9646 C   0  0  0  0  0  0  0  0  0  0  0  0
  -12.0108   20.4336   18.0021 C   0  0  0  0  0  0  0  0  0  0  0  0
  -14.3759   18.4692   15.1479 C   0  0  0  0  0  0  0  0  0  0  0  0
  -13.1715   19.0402   15.6799 O   0  0  0  0  0  0  0  0  0  0  0  0
  -15.1810   16.5886   13.7101 C   0  0  0  0  0  0  0  0  0  0  0  0
  -10.7253   19.8843   17.5145 N   0  0  0  0  0  0  0  0  0  0  0  0
   -9.7541   19.8099   18.6380 C   0  0  0  0  0  0  0  0  0  0  0  0
   -9.5193   18.3465   19.0236 C   0  0  0  0  0  0  0  0  0  0  0  0
   -8.9347   18.2826   20.3819 N   0  0  0  0  0  0  0  0  0  0  0  0
   -7.6813   17.4757   20.3410 C   0  0  0  0  0  0  0  0  0  0  0  0
   -9.9196   17.6666   21.3153 C   0  0  0  0  0  0  0  0  0  0  0  0
   -7.0731   17.4039   21.7511 C   0  0  0  0  0  0  0  0  0  0  0  0
   -9.3104   17.5907   22.7269 C   0  0  0  0  0  0  0  0  0  0  0  0
   -8.0573   16.7867   22.6848 N   0  0  0  0  0  0  0  0  0  0  0  0
  -14.0843   22.5934   14.8004 C   0  0  0  0  0  0  0  0  0  0  0  0
  -13.9946   28.8857   16.3748 N   0  0  0  0  0  0  0  0  0  0  0  0
  -13.5563   23.2984   15.9083 C   0  0  0  0  0  0  0  0  0  0  0  0
  -12.8859   22.5924   16.9425 C   0  0  0  0  0  0  0  0  0  0  0  0
  -12.7408   21.1799   16.8671 C   0  0  0  0  0  0  0  0  0  0  0  0
  -13.2883   20.4690   15.7571 C   0  0  0  0  0  0  0  0  0  0  0  0
  -13.9556   21.1815   14.7233 C   0  0  0  0  0  0  0  0  0  0  0  0
  -13.3655   29.0059   17.6348 C   0  0  0  0  0  0  0  0  0  0  0  0
  -12.9851   27.7390   18.1324 C   0  0  0  0  0  0  0  0  0  0  0  0
  -13.2329   25.4013   17.1137 C   0  0  0  0  0  0  0  0  0  0  0  0
  -13.7045   24.6909   15.9765 C   0  0  0  0  0  0  0  0  0  0  0  0
  -14.3203   25.3955   14.9057 C   0  0  0  0  0  0  0  0  0  0  0  0
  -14.4616   26.8081   14.9719 C   0  0  0  0  0  0  0  0  0  0  0  0
  -13.9736   27.5214   16.1112 C   0  0  0  0  0  0  0  0  0  0  0  0
  -13.3646   26.8259   17.1718 C   0  0  0  0  0  0  0  0  0  0  0  0
  1  6  1  0  0  0  0
  2  4  1  0  0  0  0
  3  7  1  0  0  0  0
  4  5  1  0  0  0  0
  6  2  1  0  0  0  0
  7  8  1  0  0  0  0
  8  9  1  0  0  0  0
  9 10  1  0  0  0  0
 10 11  1  0  0  0  0
 10 12  1  0  0  0  0
 11 13  1  0  0  0  0
 13 15  1  0  0  0  0
 14 12  1  0  0  0  0
 15 14  1  0  0  0  0
 16 18  2  0  0  0  0
 16 22  1  0  0  0  0
 17 23  1  0  0  0  0
 17 29  1  0  0  0  0
 18 19  1  0  0  0  0
 18 26  1  0  0  0  0
 19 20  2  0  0  0  0
 20  3  1  0  0  0  0
 20 21  1  0  0  0  0
 21  5  1  0  0  0  0
 21 22  2  0  0  0  0
 23 24  2  0  0  0  0
 24 30  1  0  0  0  0
 25 26  2  0  0  0  0
 25 30  1  0  0  0  0
 26 27  1  0  0  0  0
 27 28  2  0  0  0  0
 28 29  1  0  0  0  0
 29 30  2  0  0  0  0
M  END
>  <CHROM.1>
-166.94307133,160.14042561,151.03217995,127.18753435,-51.59552953,109.16088925
-161.37473496,-126.47383656,177.09014681,-111.84234775,141.45049401,-12.24197949
21.27696490,17.36827838,0.91348442,0.85088124,-3.03067931

>  <Name>
1uts_lig

>  <RI>
0

>  <Rbt.Current_Directory>
/home/itssahil/PROJECTS/Mol_Feturizer/New_Systems/rnas/1uts

>  <Rbt.Executable>
rbdock ($Id: //depot/dev/client3/rdock/2013.1/src/exe/rbdock.cxx#4 $)

>  <Rbt.Library>
libRbt.so (2013.1, Build901 2013/11/27)

>  <Rbt.Parameter_File>
/export/apps/rDock/src/rDock_2013.1_src/data/scripts/dock_solv.prm

>  <Rbt.Receptor>
prm/blind_docking_40.prm

>  <SCORE>
-26.1344

>  <SCORE.INTER>
-36.4012

>  <SCORE.INTER.CONST>
1

>  <SCORE.INTER.POLAR>
-3.57071

>  <SCORE.INTER.ROT>
10

>  <SCORE.INTER.SOLV>
15.4224

>  <SCORE.INTER.VDW>
-27.7725

>  <SCORE.INTER.norm>
-1.21337

>  <SCORE.INTRA>
6.32975

>  <SCORE.INTRA.DIHEDRAL>
3.2441

>  <SCORE.INTRA.DIHEDRAL.0>
18.0451

>  <SCORE.INTRA.POLAR>
0.196815

>  <SCORE.INTRA.POLAR.0>
-0.196815

>  <SCORE.INTRA.REPUL>
0

>  <SCORE.INTRA.REPUL.0>
0

>  <SCORE.INTRA.SOLV>
-0.335579

>  <SCORE.INTRA.SOLV.lig_0>
-14.7906

>  <SCORE.INTRA.VDW>
4.20632

>  <SCORE.INTRA.VDW.0>
-0.411701

>  <SCORE.INTRA.norm>
0.210992

>  <SCORE.RESTR>
3.937

>  <SCORE.RESTR.CAVITY>
3.937

>  <SCORE.RESTR.norm>
0.131233

>  <SCORE.SYSTEM>
0

>  <SCORE.SYSTEM.CONST>
0

>  <SCORE.SYSTEM.DIHEDRAL>
0

>  <SCORE.SYSTEM.SOLV>
0

>  <SCORE.SYSTEM.norm>
0

>  <SCORE.heavy>
30

>  <SCORE.norm>
-0.871147

>  <RMSD>
23.558

$$$$
1uts_lig
 OpenBabel11021811413D
libRbt.so/2013.1/901 2013/11/27
 30 33  0  0  0  0  0  0  0  0999 V2000
  -17.0661   17.3177   15.4086 N   0  0  0  0  0  0  0  0  0  0  0  0
  -14.7176   17.4085   14.6918 C   0  0  0  0  0  0  0  0  0  0  0  0
  -12.0189   20.1185   17.9977 C   0  0  0  0  0  0  0  0  0  0  0  0
  -13.6385   18.4270   14.3130 C   0  0  0  0  0  0  0  0  0  0  0  0
  -12.9706   18.8770   15.5009 O   0  0  0  0  0  0  0  0  0  0  0  0
  -15.8143   18.1024   15.5017 C   0  0  0  0  0  0  0  0  0  0  0  0
  -10.6637   19.7683   17.5152 N   0  0  0  0  0  0  0  0  0  0  0  0
   -9.7146   19.7467   18.6596 C   0  0  0  0  0  0  0  0  0  0  0  0
   -9.4942   18.3035   19.1225 C   0  0  0  0  0  0  0  0  0  0  0  0
   -8.9003   18.3063   20.4783 N   0  0  0  0  0  0  0  0  0  0  0  0
   -7.5974   17.5815   20.4465 C   0  0  0  0  0  0  0  0  0  0  0  0
   -9.8388   17.6476   21.4302 C   0  0  0  0  0  0  0  0  0  0  0  0
   -6.9792   17.5789   21.8540 C   0  0  0  0  0  0  0  0  0  0  0  0
   -9.2192   17.6411   22.8394 C   0  0  0  0  0  0  0  0  0  0  0  0
   -7.9169   16.9192   22.8063 N   0  0  0  0  0  0  0  0  0  0  0  0
  -14.2009   22.4016   14.9579 C   0  0  0  0  0  0  0  0  0  0  0  0
  -14.6780   28.5181   16.9951 N   0  0  0  0  0  0  0  0  0  0  0  0
  -13.7764   23.0314   16.1523 C   0  0  0  0  0  0  0  0  0  0  0  0
  -13.0702   22.2856   17.1334 C   0  0  0  0  0  0  0  0  0  0  0  0
  -12.7855   20.9091   16.9183 C   0  0  0  0  0  0  0  0  0  0  0  0
  -13.2287   20.2721   15.7205 C   0  0  0  0  0  0  0  0  0  0  0  0
  -13.9326   21.0244   14.7406 C   0  0  0  0  0  0  0  0  0  0  0  0
  -13.3657   28.8507   17.4012 C   0  0  0  0  0  0  0  0  0  0  0  0
  -12.5365   27.7062   17.4173 C   0  0  0  0  0  0  0  0  0  0  0  0
  -13.0437   25.2677   16.8167 C   0  0  0  0  0  0  0  0  0  0  0  0
  -14.0620   24.3885   16.3579 C   0  0  0  0  0  0  0  0  0  0  0  0
  -15.3681   24.8890   16.1014 C   0  0  0  0  0  0  0  0  0  0  0  0
  -15.6539   26.2666   16.3014 C   0  0  0  0  0  0  0  0  0  0  0  0
  -14.6237   27.1513   16.7498 C   0  0  0  0  0  0  0  0  0  0  0  0
  -13.3311   26.6579   17.0046 C   0  0  0  0  0  0  0  0  0  0  0  0
  1  6  1  0  0  0  0
  2  4  1  0  0  0  0
  3  7  1  0  0  0  0
  4  5  1  0  0  0  0
  6  2  1  0  0  0  0
  7  8  1  0  0  0  0
  8  9  1  0  0  0  0
  9 10  1  0  0  0  0
 10 11  1  0  0  0  0
 10 12  1  0  0  0  0
 11 13  1  0  0  0  0
 13 15  1  0  0  0  0
 14 12  1  0  0  0  0
 15 14  1  0  0  0  0
 16 18  2  0  0  0  0
 16 22  1  0  0  0  0
 17 23  1  0  0  0  0
 17 29  1  0  0  0  0
 18 19  1  0  0  0  0
 18 26  1  0  0  0  0
 19 20  2  0  0  0  0
 20  3  1  0  0  0  0
 20 21  1  0  0  0  0
 21  5  1  0  0  0  0
 21 22  2  0  0  0  0
 23 24  2  0  0  0  0
 24 30  1  0  0  0  0
 25 26  2  0  0  0  0
 25 30  1  0  0  0  0
 26 27  1  0  0  0  0
 27 28  2  0  0  0  0
 28 29  1  0  0  0  0
 29 30  2  0  0  0  0
M  END
>  <CHROM.1>
74.88994680,66.26675661,147.71831069,-114.47191780,157.58126774,99.23300652
-162.97166203,-121.67267036,-133.20904591,-110.85256311,173.34233651,-12.41562284
21.24823448,17.56965539,2.31940329,-0.76118146,0.09804941

>  <Name>
1uts_lig

>  <RI>
0

>  <Rbt.Current_Directory>
/home/itssahil/PROJECTS/Mol_Feturizer/New_Systems/rnas/1uts

>  <Rbt.Executable>
rbdock ($Id: //depot/dev/client3/rdock/2013.1/src/exe/rbdock.cxx#4 $)

>  <Rbt.Library>
libRbt.so (2013.1, Build901 2013/11/27)

>  <Rbt.Parameter_File>
/export/apps/rDock/src/rDock_2013.1_src/data/scripts/dock_solv.prm

>  <Rbt.Receptor>
prm/blind_docking_40.prm

>  <SCORE>
-23.323

>  <SCORE.INTER>
-31.6353

>  <SCORE.INTER.CONST>
1

>  <SCORE.INTER.POLAR>
-1.96459

>  <SCORE.INTER.ROT>
10

>  <SCORE.INTER.SOLV>
15.8232

>  <SCORE.INTER.VDW>
-30.0826

>  <SCORE.INTER.norm>
-1.05451

>  <SCORE.INTRA>
6.53126

>  <SCORE.INTRA.DIHEDRAL>
3.96716

>  <SCORE.INTRA.DIHEDRAL.0>
18.0451

>  <SCORE.INTRA.POLAR>
0.196815

>  <SCORE.INTRA.POLAR.0>
-0.196815

>  <SCORE.INTRA.REPUL>
0

>  <SCORE.INTRA.REPUL.0>
0

>  <SCORE.INTRA.SOLV>
-0.469556

>  <SCORE.INTRA.SOLV.lig_0>
-14.7906

>  <SCORE.INTRA.VDW>
4.11329

>  <SCORE.INTRA.VDW.0>
-0.411701

>  <SCORE.INTRA.norm>
0.217709

>  <SCORE.RESTR>
1.78098

>  <SCORE.RESTR.CAVITY>
1.78098

>  <SCORE.RESTR.norm>
0.059366

>  <SCORE.SYSTEM>
0

>  <SCORE.SYSTEM.CONST>
0

>  <SCORE.SYSTEM.DIHEDRAL>
0

>  <SCORE.SYSTEM.SOLV>
0

>  <SCORE.SYSTEM.norm>
0

>  <SCORE.heavy>
30

>  <SCORE.norm>
-0.777435

>  <RMSD>
23.596

$$$$
1uts_lig
 OpenBabel11021811413D
libRbt.so/2013.1/901 2013/11/27
 30 33  0  0  0  0  0  0  0  0999 V2000
  -15.5602   15.3215   13.4314 N   0  0  0  0  0  0  0  0  0  0  0  0
  -15.3698   17.0228   15.1939 C   0  0  0  0  0  0  0  0  0  0  0  0
  -11.6797   20.1589   17.0002 C   0  0  0  0  0  0  0  0  0  0  0  0
  -14.8981   18.4632   14.9743 C   0  0  0  0  0  0  0  0  0  0  0  0
  -14.2169   18.9256   16.1499 O   0  0  0  0  0  0  0  0  0  0  0  0
  -14.6011   16.0850   14.2612 C   0  0  0  0  0  0  0  0  0  0  0  0
  -11.6710   20.0368   18.4757 N   0  0  0  0  0  0  0  0  0  0  0  0
  -10.9463   18.8003   18.8717 C   0  0  0  0  0  0  0  0  0  0  0  0
   -9.4371   19.0603   18.8662 C   0  0  0  0  0  0  0  0  0  0  0  0
   -8.8612   18.6466   20.1655 N   0  0  0  0  0  0  0  0  0  0  0  0
   -8.1494   19.8043   20.7795 C   0  0  0  0  0  0  0  0  0  0  0  0
   -7.9195   17.5119   19.9498 C   0  0  0  0  0  0  0  0  0  0  0  0
   -7.5466   19.3772   22.1276 C   0  0  0  0  0  0  0  0  0  0  0  0
   -7.3124   17.0859   21.2987 C   0  0  0  0  0  0  0  0  0  0  0  0
   -6.6037   18.2432   21.9124 N   0  0  0  0  0  0  0  0  0  0  0  0
  -15.1054   22.5640   15.6983 C   0  0  0  0  0  0  0  0  0  0  0  0
  -13.4922   28.7999   16.3383 N   0  0  0  0  0  0  0  0  0  0  0  0
  -13.9100   23.1961   16.1164 C   0  0  0  0  0  0  0  0  0  0  0  0
  -12.8038   22.4107   16.5374 C   0  0  0  0  0  0  0  0  0  0  0  0
  -12.8923   20.9916   16.5375 C   0  0  0  0  0  0  0  0  0  0  0  0
  -14.1043   20.3567   16.1311 C   0  0  0  0  0  0  0  0  0  0  0  0
  -15.2072   21.1478   15.7076 C   0  0  0  0  0  0  0  0  0  0  0  0
  -13.1958   28.8988   17.7168 C   0  0  0  0  0  0  0  0  0  0  0  0
  -13.1776   27.6219   18.3225 C   0  0  0  0  0  0  0  0  0  0  0  0
  -13.5518   25.2932   17.3218 C   0  0  0  0  0  0  0  0  0  0  0  0
  -13.8307   24.5958   16.1150 C   0  0  0  0  0  0  0  0  0  0  0  0
  -14.0220   25.3195   14.9060 C   0  0  0  0  0  0  0  0  0  0  0  0
  -13.9322   26.7378   14.9042 C   0  0  0  0  0  0  0  0  0  0  0  0
  -13.6377   27.4357   16.1171 C   0  0  0  0  0  0  0  0  0  0  0  0
  -13.4487   26.7214   17.3144 C   0  0  0  0  0  0  0  0  0  0  0  0
  1  6  1  0  0  0  0
  2  4  1  0  0  0  0
  3  7  1  0  0  0  0
  4  5  1  0  0  0  0
  6  2  1  0  0  0  0
  7  8  1  0  0  0  0
  8  9  1  0  0  0  0
  9 10  1  0  0  0  0
 10 11  1  0  0  0  0
 10 12  1  0  0  0  0
 11 13  1  0  0  0  0
 13 15  1  0  0  0  0
 14 12  1  0  0  0  0
 15 14  1  0  0  0  0
 16 18  2  0  0  0  0
 16 22  1  0  0  0  0
 17 23  1  0  0  0  0
 17 29  1  0  0  0  0
 18 19  1  0  0  0  0
 18 26  1  0  0  0  0
 19 20  2  0  0  0  0
 20  3  1  0  0  0  0
 20 21  1  0  0  0  0
 21  5  1  0  0  0  0
 21 22  2  0  0  0  0
 23 24  2  0  0  0  0
 24 30  1  0  0  0  0
 25 26  2  0  0  0  0
 25 30  1  0  0  0  0
 26 27  1  0  0  0  0
 27 28  2  0  0  0  0
 28 29  1  0  0  0  0
 29 30  2  0  0  0  0
M  END
>  <CHROM.1>
61.18210794,-113.00292007,154.23940156,-163.53218322,-123.69386587,81.84855861
127.74511439,-123.46854542,121.07703723,83.77061606,-138.28954101,-12.29986778
21.34915511,17.35282813,0.93679952,0.72071817,-3.05675598

>  <Name>
1uts_lig

>  <RI>
0

>  <Rbt.Current_Directory>
/home/itssahil/PROJECTS/Mol_Feturizer/New_Systems/rnas/1uts

>  <Rbt.Executable>
rbdock ($Id: //depot/dev/client3/rdock/2013.1/src/exe/rbdock.cxx#4 $)

>  <Rbt.Library>
libRbt.so (2013.1, Build901 2013/11/27)

>  <Rbt.Parameter_File>
/export/apps/rDock/src/rDock_2013.1_src/data/scripts/dock_solv.prm

>  <Rbt.Receptor>
prm/blind_docking_40.prm

>  <SCORE>
-5.39082

>  <SCORE.INTER>
-18.8289

>  <SCORE.INTER.CONST>
1

>  <SCORE.INTER.POLAR>
-1.01186

>  <SCORE.INTER.ROT>
10

>  <SCORE.INTER.SOLV>
14.0992

>  <SCORE.INTER.VDW>
-24.1461

>  <SCORE.INTER.norm>
-0.62763

>  <SCORE.INTRA>
7.6984

>  <SCORE.INTRA.DIHEDRAL>
11.7489

>  <SCORE.INTRA.DIHEDRAL.0>
18.0451

>  <SCORE.INTRA.POLAR>
0.196815

>  <SCORE.INTRA.POLAR.0>
-0.196815

>  <SCORE.INTRA.REPUL>
0

>  <SCORE.INTRA.REPUL.0>
0

>  <SCORE.INTRA.SOLV>
-0.513705

>  <SCORE.INTRA.SOLV.lig_0>
-14.7906

>  <SCORE.INTRA.VDW>
1.41163

>  <SCORE.INTRA.VDW.0>
-0.411701

>  <SCORE.INTRA.norm>
0.256613

>  <SCORE.RESTR>
5.73967

>  <SCORE.RESTR.CAVITY>
5.73967

>  <SCORE.RESTR.norm>
0.191322

>  <SCORE.SYSTEM>
0

>  <SCORE.SYSTEM.CONST>
0

>  <SCORE.SYSTEM.DIHEDRAL>
0

>  <SCORE.SYSTEM.SOLV>
0

>  <SCORE.SYSTEM.norm>
0

>  <SCORE.heavy>
30

>  <SCORE.norm>
-0.179694

>  <RMSD>
23.684

$$$$
1uts_lig
 OpenBabel11021811413D
libRbt.so/2013.1/901 2013/11/27
 30 33  0  0  0  0  0  0  0  0999 V2000
  -18.0851   16.9519   15.5014 N   0  0  0  0  0  0  0  0  0  0  0  0
  -15.7194   17.2529   14.9095 C   0  0  0  0  0  0  0  0  0  0  0  0
  -12.1751   19.7593   17.9540 C   0  0  0  0  0  0  0  0  0  0  0  0
  -14.5510   18.2425   14.9385 C   0  0  0  0  0  0  0  0  0  0  0  0
  -14.3652   18.7207   16.2789 O   0  0  0  0  0  0  0  0  0  0  0  0
  -16.9832   17.9380   15.4327 C   0  0  0  0  0  0  0  0  0  0  0  0
  -10.8540   19.5442   17.3211 N   0  0  0  0  0  0  0  0  0  0  0  0
  -10.0152   18.6807   18.1940 C   0  0  0  0  0  0  0  0  0  0  0  0
   -9.2732   19.5449   19.2178 C   0  0  0  0  0  0  0  0  0  0  0  0
   -8.6111   18.6710   20.2123 N   0  0  0  0  0  0  0  0  0  0  0  0
   -9.6419   17.8491   20.9092 C   0  0  0  0  0  0  0  0  0  0  0  0
   -7.8673   19.5125   21.1919 C   0  0  0  0  0  0  0  0  0  0  0  0
   -8.9582   16.9428   21.9458 C   0  0  0  0  0  0  0  0  0  0  0  0
   -7.1853   18.6062   22.2326 C   0  0  0  0  0  0  0  0  0  0  0  0
   -8.2151   17.7839   22.9265 N   0  0  0  0  0  0  0  0  0  0  0  0
  -14.6433   22.3945   15.4683 C   0  0  0  0  0  0  0  0  0  0  0  0
  -12.7841   28.4931   16.5090 N   0  0  0  0  0  0  0  0  0  0  0  0
  -13.6121   22.9355   16.2728 C   0  0  0  0  0  0  0  0  0  0  0  0
  -12.8163   22.0760   17.0762 C   0  0  0  0  0  0  0  0  0  0  0  0
  -13.0501   20.6735   17.0727 C   0  0  0  0  0  0  0  0  0  0  0  0
  -14.1011   20.1318   16.2732 C   0  0  0  0  0  0  0  0  0  0  0  0
  -14.8925   20.9967   15.4686 C   0  0  0  0  0  0  0  0  0  0  0  0
  -13.4196   28.7119   17.7523 C   0  0  0  0  0  0  0  0  0  0  0  0
  -13.9376   27.5049   18.2743 C   0  0  0  0  0  0  0  0  0  0  0  0
  -13.8592   25.1163   17.3511 C   0  0  0  0  0  0  0  0  0  0  0  0
  -13.3884   24.3196   16.2722 C   0  0  0  0  0  0  0  0  0  0  0  0
  -12.6846   24.9275   15.1965 C   0  0  0  0  0  0  0  0  0  0  0  0
  -12.4504   26.3292   15.2016 C   0  0  0  0  0  0  0  0  0  0  0  0
  -12.9132   27.1260   16.2952 C   0  0  0  0  0  0  0  0  0  0  0  0
  -13.6103   26.5264   17.3600 C   0  0  0  0  0  0  0  0  0  0  0  0
  1  6  1  0  0  0  0
  2  4  1  0  0  0  0
  3  7  1  0  0  0  0
  4  5  1  0  0  0  0
  6  2  1  0  0  0  0
  7  8  1  0  0  0  0
  8  9  1  0  0  0  0
  9 10  1  0  0  0  0
 10 11  1  0  0  0  0
 10 12  1  0  0  0  0
 11 13  1  0  0  0  0
 13 15  1  0  0  0  0
 14 12  1  0  0  0  0
 15 14  1  0  0  0  0
 16 18  2  0  0  0  0
 16 22  1  0  0  0  0
 17 23  1  0  0  0  0
 17 29  1  0  0  0  0
 18 19  1  0  0  0  0
 18 26  1  0  0  0  0
 19 20  2  0  0  0  0
 20  3  1  0  0  0  0
 20 21  1  0  0  0  0
 21  5  1  0  0  0  0
 21 22  2  0  0  0  0
 23 24  2  0  0  0  0
 24 30  1  0  0  0  0
 25 26  2  0  0  0  0
 25 30  1  0  0  0  0
 26 27  1  0  0  0  0
 27 28  2  0  0  0  0
 28 29  1  0  0  0  0
 29 30  2  0  0  0  0
M  END
>  <CHROM.1>
-30.43665332,57.88765989,179.02923676,-138.26632166,-175.69985555,-86.80866874
171.19810492,-60.12760031,102.07850859,-77.78291293,-134.71716297,-12.45053815
21.28432921,17.62230663,2.17642012,-0.66989416,-0.09083992

>  <Name>
1uts_lig

>  <RI>
0

>  <Rbt.Current_Directory>
/home/itssahil/PROJECTS/Mol_Feturizer/New_Systems/rnas/1uts

>  <Rbt.Executable>
rbdock ($Id: //depot/dev/client3/rdock/2013.1/src/exe/rbdock.cxx#4 $)

>  <Rbt.Library>
libRbt.so (2013.1, Build901 2013/11/27)

>  <Rbt.Parameter_File>
/export/apps/rDock/src/rDock_2013.1_src/data/scripts/dock_solv.prm

>  <Rbt.Receptor>
prm/blind_docking_40.prm

>  <SCORE>
-20.4153

>  <SCORE.INTER>
-25.7405

>  <SCORE.INTER.CONST>
1

>  <SCORE.INTER.POLAR>
-1.36898

>  <SCORE.INTER.ROT>
10

>  <SCORE.INTER.SOLV>
14.0994

>  <SCORE.INTER.VDW>
-27.5635

>  <SCORE.INTER.norm>
-0.858016

>  <SCORE.INTRA>
2.24579

>  <SCORE.INTRA.DIHEDRAL>
-1.01709

>  <SCORE.INTRA.DIHEDRAL.0>
18.0451

>  <SCORE.INTRA.POLAR>
0.196815

>  <SCORE.INTRA.POLAR.0>
-0.196815

>  <SCORE.INTRA.REPUL>
0

>  <SCORE.INTRA.REPUL.0>
0

>  <SCORE.INTRA.SOLV>
-0.530785

>  <SCORE.INTRA.SOLV.lig_0>
-14.7906

>  <SCORE.INTRA.VDW>
2.35055

>  <SCORE.INTRA.VDW.0>
-0.411701

>  <SCORE.INTRA.norm>
0.0748595

>  <SCORE.RESTR>
3.07937

>  <SCORE.RESTR.CAVITY>
3.07937

>  <SCORE.RESTR.norm>
0.102646

>  <SCORE.SYSTEM>
0

>  <SCORE.SYSTEM.CONST>
0

>  <SCORE.SYSTEM.DIHEDRAL>
0

>  <SCORE.SYSTEM.SOLV>
0

>  <SCORE.SYSTEM.norm>
0

>  <SCORE.heavy>
30

>  <SCORE.norm>
-0.680511

>  <RMSD>
23.690

$$$$
1uts_lig
 OpenBabel11021811413D
libRbt.so/2013.1/901 2013/11/27
 30 33  0  0  0  0  0  0  0  0999 V2000
  -17.0336   17.2310   14.9363 N   0  0  0  0  0  0  0  0  0  0  0  0
  -15.3045   18.8547   14.2950 C   0  0  0  0  0  0  0  0  0  0  0  0
  -11.9695   20.1374   18.1335 C   0  0  0  0  0  0  0  0  0  0  0  0
  -14.7394   18.8323   15.7181 C   0  0  0  0  0  0  0  0  0  0  0  0
  -13.3703   19.2622   15.6936 O   0  0  0  0  0  0  0  0  0  0  0  0
  -16.8060   18.5651   14.3362 C   0  0  0  0  0  0  0  0  0  0  0  0
  -10.7203   19.5831   17.5641 N   0  0  0  0  0  0  0  0  0  0  0  0
   -9.6231   19.6936   18.5616 C   0  0  0  0  0  0  0  0  0  0  0  0
   -9.6159   18.4555   19.4629 C   0  0  0  0  0  0  0  0  0  0  0  0
   -8.3140   18.3617   20.1608 N   0  0  0  0  0  0  0  0  0  0  0  0
   -8.2966   17.1345   21.0078 C   0  0  0  0  0  0  0  0  0  0  0  0
   -8.1152   19.5764   21.0011 C   0  0  0  0  0  0  0  0  0  0  0  0
   -6.9471   17.0358   21.7374 C   0  0  0  0  0  0  0  0  0  0  0  0
   -6.7658   19.4769   21.7351 C   0  0  0  0  0  0  0  0  0  0  0  0
   -6.7483   18.2497   22.5789 N   0  0  0  0  0  0  0  0  0  0  0  0
  -13.7965   22.9954   15.3570 C   0  0  0  0  0  0  0  0  0  0  0  0
  -12.8058   29.0016   17.3970 N   0  0  0  0  0  0  0  0  0  0  0  0
  -13.1480   23.4559   16.5277 C   0  0  0  0  0  0  0  0  0  0  0  0
  -12.5585   22.5244   17.4234 C   0  0  0  0  0  0  0  0  0  0  0  0
  -12.6149   21.1309   17.1463 C   0  0  0  0  0  0  0  0  0  0  0  0
  -13.2835   20.6677   15.9735 C   0  0  0  0  0  0  0  0  0  0  0  0
  -13.8691   21.6050   15.0789 C   0  0  0  0  0  0  0  0  0  0  0  0
  -11.7829   29.2632   16.4572 C   0  0  0  0  0  0  0  0  0  0  0  0
  -11.3625   28.0719   15.8234 C   0  0  0  0  0  0  0  0  0  0  0  0
  -12.1718   25.6570   16.1012 C   0  0  0  0  0  0  0  0  0  0  0  0
  -13.0977   24.8313   16.7950 C   0  0  0  0  0  0  0  0  0  0  0  0
  -13.9769   25.4036   17.7550 C   0  0  0  0  0  0  0  0  0  0  0  0
  -13.9313   26.7994   18.0184 C   0  0  0  0  0  0  0  0  0  0  0  0
  -13.0082   27.6296   17.3086 C   0  0  0  0  0  0  0  0  0  0  0  0
  -12.1372   27.0651   16.3590 C   0  0  0  0  0  0  0  0  0  0  0  0
  1  6  1  0  0  0  0
  2  4  1  0  0  0  0
  3  7  1  0  0  0  0
  4  5  1  0  0  0  0
  6  2  1  0  0  0  0
  7  8  1  0  0  0  0
  8  9  1  0  0  0  0
  9 10  1  0  0  0  0
 10 11  1  0  0  0  0
 10 12  1  0  0  0  0
 11 13  1  0  0  0  0
 13 15  1  0  0  0  0
 14 12  1  0  0  0  0
 15 14  1  0  0  0  0
 16 18  2  0  0  0  0
 16 22  1  0  0  0  0
 17 23  1  0  0  0  0
 17 29  1  0  0  0  0
 18 19  1  0  0  0  0
 18 26  1  0  0  0  0
 19 20  2  0  0  0  0
 20  3  1  0  0  0  0
 20 21  1  0  0  0  0
 21  5  1  0  0  0  0
 21 22  2  0  0  0  0
 23 24  2  0  0  0  0
 24 30  1  0  0  0  0
 25 26  2  0  0  0  0
 25 30  1  0  0  0  0
 26 27  1  0  0  0  0
 27 28  2  0  0  0  0
 28 29  1  0  0  0  0
 29 30  2  0  0  0  0
M  END
>  <CHROM.1>
73.39772124,-173.06350434,130.48559502,94.78758635,-60.00676639,87.82981722
162.87415927,-178.42183955,-77.49600997,-106.91822670,115.96824916,-11.88853716
21.68366277,17.59738405,2.21477237,-0.66653930,-0.04633762

>  <Name>
1uts_lig

>  <RI>
0

>  <Rbt.Current_Directory>
/home/itssahil/PROJECTS/Mol_Feturizer/New_Systems/rnas/1uts

>  <Rbt.Executable>
rbdock ($Id: //depot/dev/client3/rdock/2013.1/src/exe/rbdock.cxx#4 $)

>  <Rbt.Library>
libRbt.so (2013.1, Build901 2013/11/27)

>  <Rbt.Parameter_File>
/export/apps/rDock/src/rDock_2013.1_src/data/scripts/dock_solv.prm

>  <Rbt.Receptor>
prm/blind_docking_40.prm

>  <SCORE>
-16.1575

>  <SCORE.INTER>
-26.0338

>  <SCORE.INTER.CONST>
1

>  <SCORE.INTER.POLAR>
-1.46095

>  <SCORE.INTER.ROT>
10

>  <SCORE.INTER.SOLV>
12.4781

>  <SCORE.INTER.VDW>
-26.912

>  <SCORE.INTER.norm>
-0.867793

>  <SCORE.INTRA>
3.24456

>  <SCORE.INTRA.DIHEDRAL>
2.19748

>  <SCORE.INTRA.DIHEDRAL.0>
18.0451

>  <SCORE.INTRA.POLAR>
0.196815

>  <SCORE.INTRA.POLAR.0>
-0.196815

>  <SCORE.INTRA.REPUL>
0

>  <SCORE.INTRA.REPUL.0>
0

>  <SCORE.INTRA.SOLV>
-0.40451

>  <SCORE.INTRA.SOLV.lig_0>
-14.7906

>  <SCORE.INTRA.VDW>
1.67891

>  <SCORE.INTRA.VDW.0>
-0.411701

>  <SCORE.INTRA.norm>
0.108152

>  <SCORE.RESTR>
6.63173

>  <SCORE.RESTR.CAVITY>
6.63173

>  <SCORE.RESTR.norm>
0.221058

>  <SCORE.SYSTEM>
0

>  <SCORE.SYSTEM.CONST>
0

>  <SCORE.SYSTEM.DIHEDRAL>
0

>  <SCORE.SYSTEM.SOLV>
0

>  <SCORE.SYSTEM.norm>
0

>  <SCORE.heavy>
30

>  <SCORE.norm>
-0.538583

>  <RMSD>
23.765

$$$$
1uts_lig
 OpenBabel11021811413D
libRbt.so/2013.1/901 2013/11/27
 30 33  0  0  0  0  0  0  0  0999 V2000
  -14.8120   15.6302   14.1750 N   0  0  0  0  0  0  0  0  0  0  0  0
  -15.4280   17.7029   15.3420 C   0  0  0  0  0  0  0  0  0  0  0  0
  -12.5122   20.1591   17.8434 C   0  0  0  0  0  0  0  0  0  0  0  0
  -15.2643   19.2255   15.3301 C   0  0  0  0  0  0  0  0  0  0  0  0
  -13.8676   19.5539   15.2982 O   0  0  0  0  0  0  0  0  0  0  0  0
  -14.7702   17.1079   14.0957 C   0  0  0  0  0  0  0  0  0  0  0  0
  -11.1613   19.7088   17.4381 N   0  0  0  0  0  0  0  0  0  0  0  0
  -10.2117   19.8945   18.5672 C   0  0  0  0  0  0  0  0  0  0  0  0
   -9.3045   18.6666   18.6883 C   0  0  0  0  0  0  0  0  0  0  0  0
   -8.9030   18.4882   20.1017 N   0  0  0  0  0  0  0  0  0  0  0  0
   -8.2481   19.7364   20.5888 C   0  0  0  0  0  0  0  0  0  0  0  0
   -7.9661   17.3341   20.2074 C   0  0  0  0  0  0  0  0  0  0  0  0
   -7.8261   19.5535   22.0557 C   0  0  0  0  0  0  0  0  0  0  0  0
   -7.5400   17.1523   21.6754 C   0  0  0  0  0  0  0  0  0  0  0  0
   -6.8882   18.4000   22.1618 N   0  0  0  0  0  0  0  0  0  0  0  0
  -13.9433   23.3234   15.1687 C   0  0  0  0  0  0  0  0  0  0  0  0
  -12.5422   29.0963   17.5914 N   0  0  0  0  0  0  0  0  0  0  0  0
  -13.3128   23.6563   16.3914 C   0  0  0  0  0  0  0  0  0  0  0  0
  -12.8519   22.6260   17.2537 C   0  0  0  0  0  0  0  0  0  0  0  0
  -13.0189   21.2612   16.8912 C   0  0  0  0  0  0  0  0  0  0  0  0
  -13.6695   20.9276   15.6654 C   0  0  0  0  0  0  0  0  0  0  0  0
  -14.1261   21.9632   14.8048 C   0  0  0  0  0  0  0  0  0  0  0  0
  -11.5617   29.3554   16.6069 C   0  0  0  0  0  0  0  0  0  0  0  0
  -11.2619   28.1857   15.8723 C   0  0  0  0  0  0  0  0  0  0  0  0
  -12.2160   25.8143   16.0456 C   0  0  0  0  0  0  0  0  0  0  0  0
  -13.1530   25.0041   16.7427 C   0  0  0  0  0  0  0  0  0  0  0  0
  -13.9325   25.5647   17.7918 C   0  0  0  0  0  0  0  0  0  0  0  0
  -13.7762   26.9334   18.1407 C   0  0  0  0  0  0  0  0  0  0  0  0
  -12.8426   27.7494   17.4282 C   0  0  0  0  0  0  0  0  0  0  0  0
  -12.0701   27.1964   16.3905 C   0  0  0  0  0  0  0  0  0  0  0  0
  1  6  1  0  0  0  0
  2  4  1  0  0  0  0
  3  7  1  0  0  0  0
  4  5  1  0  0  0  0
  6  2  1  0  0  0  0
  7  8  1  0  0  0  0
  8  9  1  0  0  0  0
  9 10  1  0  0  0  0
 10 11  1  0  0  0  0
 10 12  1  0  0  0  0
 11 13  1  0  0  0  0
 13 15  1  0  0  0  0
 14 12  1  0  0  0  0
 15 14  1  0  0  0  0
 16 18  2  0  0  0  0
 16 22  1  0  0  0  0
 17 23  1  0  0  0  0
 17 29  1  0  0  0  0
 18 19  1  0  0  0  0
 18 26  1  0  0  0  0
 19 20  2  0  0  0  0
 20  3  1  0  0  0  0
 20 21  1  0  0  0  0
 21  5  1  0  0  0  0
 21 22  2  0  0  0  0
 23 24  2  0  0  0  0
 24 30  1  0  0  0  0
 25 26  2  0  0  0  0
 25 30  1  0  0  0  0
 26 27  1  0  0  0  0
 27 28  2  0  0  0  0
 28 29  1  0  0  0  0
 29 30  2  0  0  0  0
M  END
>  <CHROM.1>
48.06522983,-58.95175796,122.33391776,-163.64802752,174.46193062,137.07627117
-150.28790810,-56.21268851,-71.19732201,-95.89728470,111.93539383,-11.91094492
21.68067133,17.45255613,1.13976321,0.73684487,-3.12245513

>  <Name>
1uts_lig

>  <RI>
0

>  <Rbt.Current_Directory>
/home/itssahil/PROJECTS/Mol_Feturizer/New_Systems/rnas/1uts

>  <Rbt.Executable>
rbdock ($Id: //depot/dev/client3/rdock/2013.1/src/exe/rbdock.cxx#4 $)

>  <Rbt.Library>
libRbt.so (2013.1, Build901 2013/11/27)

>  <Rbt.Parameter_File>
/export/apps/rDock/src/rDock_2013.1_src/data/scripts/dock_solv.prm

>  <Rbt.Receptor>
prm/blind_docking_40.prm

>  <SCORE>
-23.3099

>  <SCORE.INTER>
-33.3538

>  <SCORE.INTER.CONST>
1

>  <SCORE.INTER.POLAR>
-2.8621

>  <SCORE.INTER.ROT>
10

>  <SCORE.INTER.SOLV>
14.8076

>  <SCORE.INTER.VDW>
-27.898

>  <SCORE.INTER.norm>
-1.11179

>  <SCORE.INTRA>
3.21288

>  <SCORE.INTRA.DIHEDRAL>
2.0441

>  <SCORE.INTRA.DIHEDRAL.0>
18.0451

>  <SCORE.INTRA.POLAR>
0.196815

>  <SCORE.INTRA.POLAR.0>
-0.196815

>  <SCORE.INTRA.REPUL>
0

>  <SCORE.INTRA.REPUL.0>
0

>  <SCORE.INTRA.SOLV>
-0.517961

>  <SCORE.INTRA.SOLV.lig_0>
-14.7906

>  <SCORE.INTRA.VDW>
1.78064

>  <SCORE.INTRA.VDW.0>
-0.411701

>  <SCORE.INTRA.norm>
0.107096

>  <SCORE.RESTR>
6.83097

>  <SCORE.RESTR.CAVITY>
6.83097

>  <SCORE.RESTR.norm>
0.227699

>  <SCORE.SYSTEM>
0

>  <SCORE.SYSTEM.CONST>
0

>  <SCORE.SYSTEM.DIHEDRAL>
0

>  <SCORE.SYSTEM.SOLV>
0

>  <SCORE.SYSTEM.norm>
0

>  <SCORE.heavy>
30

>  <SCORE.norm>
-0.776997

>  <RMSD>
23.805

$$$$
1uts_lig
 OpenBabel11021811413D
libRbt.so/2013.1/901 2013/11/27
 30 33  0  0  0  0  0  0  0  0999 V2000
  -13.0107   17.3566   11.9224 N   0  0  0  0  0  0  0  0  0  0  0  0
  -13.7665   17.1092   14.2472 C   0  0  0  0  0  0  0  0  0  0  0  0
  -11.5318   20.4767   17.1073 C   0  0  0  0  0  0  0  0  0  0  0  0
  -13.8903   18.6289   14.3898 C   0  0  0  0  0  0  0  0  0  0  0  0
  -13.6956   18.9957   15.7636 O   0  0  0  0  0  0  0  0  0  0  0  0
  -14.0188   16.7097   12.7923 C   0  0  0  0  0  0  0  0  0  0  0  0
  -11.7656   19.9559   18.4734 N   0  0  0  0  0  0  0  0  0  0  0  0
  -10.8937   18.7760   18.7157 C   0  0  0  0  0  0  0  0  0  0  0  0
   -9.4333   19.2247   18.8235 C   0  0  0  0  0  0  0  0  0  0  0  0
   -8.8032   18.5740   19.9941 N   0  0  0  0  0  0  0  0  0  0  0  0
   -9.8535   17.8888   20.8012 C   0  0  0  0  0  0  0  0  0  0  0  0
   -8.1051   19.6032   20.8153 C   0  0  0  0  0  0  0  0  0  0  0  0
   -9.2031   17.2149   22.0202 C   0  0  0  0  0  0  0  0  0  0  0  0
   -7.4566   18.9300   22.0383 C   0  0  0  0  0  0  0  0  0  0  0  0
   -8.5059   18.2439   22.8426 N   0  0  0  0  0  0  0  0  0  0  0  0
  -15.1289   22.4817   15.6056 C   0  0  0  0  0  0  0  0  0  0  0  0
  -14.5197   28.7932   16.9584 N   0  0  0  0  0  0  0  0  0  0  0  0
  -14.1202   23.2270   16.2616 C   0  0  0  0  0  0  0  0  0  0  0  0
  -12.9573   22.5710   16.7462 C   0  0  0  0  0  0  0  0  0  0  0  0
  -12.8017   21.1684   16.5718 C   0  0  0  0  0  0  0  0  0  0  0  0
  -13.8275   20.4162   15.9245 C   0  0  0  0  0  0  0  0  0  0  0  0
  -14.9879   21.0788   15.4387 C   0  0  0  0  0  0  0  0  0  0  0  0
  -13.1811   29.0165   17.3535 C   0  0  0  0  0  0  0  0  0  0  0  0
  -12.4585   27.8027   17.3989 C   0  0  0  0  0  0  0  0  0  0  0  0
  -13.1861   25.4049   16.8647 C   0  0  0  0  0  0  0  0  0  0  0  0
  -14.2814   24.6093   16.4312 C   0  0  0  0  0  0  0  0  0  0  0  0
  -15.5380   25.2188   16.1635 C   0  0  0  0  0  0  0  0  0  0  0  0
  -15.6975   26.6214   16.3269 C   0  0  0  0  0  0  0  0  0  0  0  0
  -14.5899   27.4211   16.7497 C   0  0  0  0  0  0  0  0  0  0  0  0
  -13.3461   26.8198   17.0157 C   0  0  0  0  0  0  0  0  0  0  0  0
  1  6  1  0  0  0  0
  2  4  1  0  0  0  0
  3  7  1  0  0  0  0
  4  5  1  0  0  0  0
  6  2  1  0  0  0  0
  7  8  1  0  0  0  0
  8  9  1  0  0  0  0
  9 10  1  0  0  0  0
 10 11  1  0  0  0  0
 10 12  1  0  0  0  0
 11 13  1  0  0  0  0
 13 15  1  0  0  0  0
 14 12  1  0  0  0  0
 15 14  1  0  0  0  0
 16 18  2  0  0  0  0
 16 22  1  0  0  0  0
 17 23  1  0  0  0  0
 17 29  1  0  0  0  0
 18 19  1  0  0  0  0
 18 26  1  0  0  0  0
 19 20  2  0  0  0  0
 20  3  1  0  0  0  0
 20 21  1  0  0  0  0
 21  5  1  0  0  0  0
 21 22  2  0  0  0  0
 23 24  2  0  0  0  0
 24 30  1  0  0  0  0
 25 26  2  0  0  0  0
 25 30  1  0  0  0  0
 26 27  1  0  0  0  0
 27 28  2  0  0  0  0
 28 29  1  0  0  0  0
 29 30  2  0  0  0  0
M  END
>  <CHROM.1>
-72.57646148,178.15738394,151.83388840,-179.13273790,60.69155945,70.03339236
133.85114585,-9.48321693,-168.63819131,93.21698702,-127.32778515,-12.39699934
21.48877480,17.31836486,0.73670842,0.90627839,-2.79612722

>  <Name>
1uts_lig

>  <RI>
0

>  <Rbt.Current_Directory>
/home/itssahil/PROJECTS/Mol_Feturizer/New_Systems/rnas/1uts

>  <Rbt.Executable>
rbdock ($Id: //depot/dev/client3/rdock/2013.1/src/exe/rbdock.cxx#4 $)

>  <Rbt.Library>
libRbt.so (2013.1, Build901 2013/11/27)

>  <Rbt.Parameter_File>
/export/apps/rDock/src/rDock_2013.1_src/data/scripts/dock_solv.prm

>  <Rbt.Receptor>
prm/blind_docking_40.prm

>  <SCORE>
-4.79959

>  <SCORE.INTER>
-23.9731

>  <SCORE.INTER.CONST>
1

>  <SCORE.INTER.POLAR>
-2.11779

>  <SCORE.INTER.ROT>
10

>  <SCORE.INTER.SOLV>
16.2397

>  <SCORE.INTER.VDW>
-24.6027

>  <SCORE.INTER.norm>
-0.799102

>  <SCORE.INTRA>
13.548

>  <SCORE.INTRA.DIHEDRAL>
-3.61459

>  <SCORE.INTRA.DIHEDRAL.0>
18.0451

>  <SCORE.INTRA.POLAR>
0.196815

>  <SCORE.INTRA.POLAR.0>
-0.196815

>  <SCORE.INTRA.REPUL>
0

>  <SCORE.INTRA.REPUL.0>
0

>  <SCORE.INTRA.SOLV>
-0.337662

>  <SCORE.INTRA.SOLV.lig_0>
-14.7906

>  <SCORE.INTRA.VDW>
14.855

>  <SCORE.INTRA.VDW.0>
-0.411701

>  <SCORE.INTRA.norm>
0.451601

>  <SCORE.RESTR>
5.62544

>  <SCORE.RESTR.CAVITY>
5.62544

>  <SCORE.RESTR.norm>
0.187515

>  <SCORE.SYSTEM>
0

>  <SCORE.SYSTEM.CONST>
0

>  <SCORE.SYSTEM.DIHEDRAL>
0

>  <SCORE.SYSTEM.SOLV>
0

>  <SCORE.SYSTEM.norm>
0

>  <SCORE.heavy>
30

>  <SCORE.norm>
-0.159986

>  <RMSD>
23.817

$$$$
1uts_lig
 OpenBabel11021811413D
libRbt.so/2013.1/901 2013/11/27
 30 33  0  0  0  0  0  0  0  0999 V2000
  -14.9563   26.6180   18.4028 N   0  0  0  0  0  0  0  0  0  0  0  0
  -14.2151   25.7519   16.2262 C   0  0  0  0  0  0  0  0  0  0  0  0
  -13.4209   20.7027   14.7324 C   0  0  0  0  0  0  0  0  0  0  0  0
  -14.8460   24.3732   16.4410 C   0  0  0  0  0  0  0  0  0  0  0  0
  -14.1822   23.4108   15.6085 O   0  0  0  0  0  0  0  0  0  0  0  0
  -15.0534   26.8148   16.9388 C   0  0  0  0  0  0  0  0  0  0  0  0
  -13.1140   19.2543   14.7259 N   0  0  0  0  0  0  0  0  0  0  0  0
  -13.7556   18.6116   13.5485 C   0  0  0  0  0  0  0  0  0  0  0  0
  -14.4076   17.2916   13.9704 C   0  0  0  0  0  0  0  0  0  0  0  0
  -15.4740   17.5632   14.9603 N   0  0  0  0  0  0  0  0  0  0  0  0
  -15.9134   16.2779   15.5758 C   0  0  0  0  0  0  0  0  0  0  0  0
  -16.6192   18.2332   14.2818 C   0  0  0  0  0  0  0  0  0  0  0  0
  -17.0238   16.5556   16.6019 C   0  0  0  0  0  0  0  0  0  0  0  0
  -17.7333   18.5085   15.3076 C   0  0  0  0  0  0  0  0  0  0  0  0
  -18.1700   17.2246   15.9236 N   0  0  0  0  0  0  0  0  0  0  0  0
  -11.6433   22.5800   18.2722 C   0  0  0  0  0  0  0  0  0  0  0  0
   -7.4084   18.7004   21.0834 N   0  0  0  0  0  0  0  0  0  0  0  0
  -11.2634   21.2698   17.8951 C   0  0  0  0  0  0  0  0  0  0  0  0
  -11.8436   20.6672   16.7472 C   0  0  0  0  0  0  0  0  0  0  0  0
  -12.8027   21.3770   15.9738 C   0  0  0  0  0  0  0  0  0  0  0  0
  -13.1965   22.6918   16.3652 C   0  0  0  0  0  0  0  0  0  0  0  0
  -12.6100   23.2912   17.5134 C   0  0  0  0  0  0  0  0  0  0  0  0
   -6.7588   19.8671   21.5468 C   0  0  0  0  0  0  0  0  0  0  0  0
   -7.3477   21.0268   20.9935 C   0  0  0  0  0  0  0  0  0  0  0  0
   -9.3294   21.2917   19.3914 C   0  0  0  0  0  0  0  0  0  0  0  0
  -10.3182   20.5755   18.6634 C   0  0  0  0  0  0  0  0  0  0  0  0
  -10.3512   19.1551   18.7215 C   0  0  0  0  0  0  0  0  0  0  0  0
   -9.3983   18.4530   19.5080 C   0  0  0  0  0  0  0  0  0  0  0  0
   -8.4134   19.1769   20.2503 C   0  0  0  0  0  0  0  0  0  0  0  0
   -8.3788   20.5823   20.1936 C   0  0  0  0  0  0  0  0  0  0  0  0
  1  6  1  0  0  0  0
  2  4  1  0  0  0  0
  3  7  1  0  0  0  0
  4  5  1  0  0  0  0
  6  2  1  0  0  0  0
  7  8  1  0  0  0  0
  8  9  1  0  0  0  0
  9 10  1  0  0  0  0
 10 11  1  0  0  0  0
 10 12  1  0  0  0  0
 11 13  1  0  0  0  0
 13 15  1  0  0  0  0
 14 12  1  0  0  0  0
 15 14  1  0  0  0  0
 16 18  2  0  0  0  0
 16 22  1  0  0  0  0
 17 23  1  0  0  0  0
 17 29  1  0  0  0  0
 18 19  1  0  0  0  0
 18 26  1  0  0  0  0
 19 20  2  0  0  0  0
 20  3  1  0  0  0  0
 20 21  1  0  0  0  0
 21  5  1  0  0  0  0
 21 22  2  0  0  0  0
 23 24  2  0  0  0  0
 24 30  1  0  0  0  0
 25 26  2  0  0  0  0
 25 30  1  0  0  0  0
 26 27  1  0  0  0  0
 27 28  2  0  0  0  0
 28 29  1  0  0  0  0
 29 30  2  0  0  0  0
M  END
>  <CHROM.1>
-51.69190947,171.20063479,178.07875670,98.23027820,67.32935815,-136.22352872
62.44702431,-168.45861818,-28.35786524,12.94513283,154.26677131,-12.82233282
20.60170577,17.13901695,2.91109165,0.56729330,-3.04004067

>  <Name>
1uts_lig

>  <RI>
0

>  <Rbt.Current_Directory>
/home/itssahil/PROJECTS/Mol_Feturizer/New_Systems/rnas/1uts

>  <Rbt.Executable>
rbdock ($Id: //depot/dev/client3/rdock/2013.1/src/exe/rbdock.cxx#4 $)

>  <Rbt.Library>
libRbt.so (2013.1, Build901 2013/11/27)

>  <Rbt.Parameter_File>
/export/apps/rDock/src/rDock_2013.1_src/data/scripts/dock_solv.prm

>  <Rbt.Receptor>
prm/blind_docking_40.prm

>  <SCORE>
-1.33515

>  <SCORE.INTER>
-9.01869

>  <SCORE.INTER.CONST>
1

>  <SCORE.INTER.POLAR>
-1.5142

>  <SCORE.INTER.ROT>
10

>  <SCORE.INTER.SOLV>
14.8685

>  <SCORE.INTER.VDW>
-16.188

>  <SCORE.INTER.norm>
-0.300623

>  <SCORE.INTRA>
3.13927

>  <SCORE.INTRA.DIHEDRAL>
-6.27054

>  <SCORE.INTRA.DIHEDRAL.0>
18.0451

>  <SCORE.INTRA.POLAR>
0.196815

>  <SCORE.INTRA.POLAR.0>
-0.196815

>  <SCORE.INTRA.REPUL>
0.00109813

>  <SCORE.INTRA.REPUL.0>
0

>  <SCORE.INTRA.SOLV>
-0.219959

>  <SCORE.INTRA.SOLV.lig_0>
-14.7906

>  <SCORE.INTRA.VDW>
5.70986

>  <SCORE.INTRA.VDW.0>
-0.411701

>  <SCORE.INTRA.norm>
0.104642

>  <SCORE.RESTR>
4.54428

>  <SCORE.RESTR.CAVITY>
4.54428

>  <SCORE.RESTR.norm>
0.151476

>  <SCORE.SYSTEM>
0

>  <SCORE.SYSTEM.CONST>
0

>  <SCORE.SYSTEM.DIHEDRAL>
0

>  <SCORE.SYSTEM.SOLV>
0

>  <SCORE.SYSTEM.norm>
0

>  <SCORE.heavy>
30

>  <SCORE.norm>
-0.0445049

>  <RMSD>
23.845

$$$$
1uts_lig
 OpenBabel11021811413D
libRbt.so/2013.1/901 2013/11/27
 30 33  0  0  0  0  0  0  0  0999 V2000
  -17.5627   17.8142   14.6381 N   0  0  0  0  0  0  0  0  0  0  0  0
  -15.1435   17.5529   14.9794 C   0  0  0  0  0  0  0  0  0  0  0  0
  -12.6533   20.0846   17.9014 C   0  0  0  0  0  0  0  0  0  0  0  0
  -14.9001   18.9240   15.6166 C   0  0  0  0  0  0  0  0  0  0  0  0
  -13.6211   19.4231   15.1982 O   0  0  0  0  0  0  0  0  0  0  0  0
  -16.5323   17.0456   15.3722 C   0  0  0  0  0  0  0  0  0  0  0  0
  -11.2201   20.1769   18.2610 N   0  0  0  0  0  0  0  0  0  0  0  0
  -10.7513   18.8690   18.7907 C   0  0  0  0  0  0  0  0  0  0  0  0
   -9.2234   18.8704   18.8957 C   0  0  0  0  0  0  0  0  0  0  0  0
   -8.8246   18.5386   20.2820 N   0  0  0  0  0  0  0  0  0  0  0  0
   -8.0552   19.6783   20.8591 C   0  0  0  0  0  0  0  0  0  0  0  0
   -7.9942   17.3012   20.2746 C   0  0  0  0  0  0  0  0  0  0  0  0
   -7.6359   19.3357   22.2979 C   0  0  0  0  0  0  0  0  0  0  0  0
   -7.5706   16.9592   21.7144 C   0  0  0  0  0  0  0  0  0  0  0  0
   -6.8043   18.0989   22.2909 N   0  0  0  0  0  0  0  0  0  0  0  0
  -13.6832   23.1890   14.9830 C   0  0  0  0  0  0  0  0  0  0  0  0
  -12.6876   29.0217   17.4486 N   0  0  0  0  0  0  0  0  0  0  0  0
  -13.2388   23.5488   16.2777 C   0  0  0  0  0  0  0  0  0  0  0  0
  -12.9071   22.5378   17.2187 C   0  0  0  0  0  0  0  0  0  0  0  0
  -13.0171   21.1654   16.8634 C   0  0  0  0  0  0  0  0  0  0  0  0
  -13.4810   20.8047   15.5627 C   0  0  0  0  0  0  0  0  0  0  0  0
  -13.8086   21.8210   14.6238 C   0  0  0  0  0  0  0  0  0  0  0  0
  -11.7008   29.3096   16.4785 C   0  0  0  0  0  0  0  0  0  0  0  0
  -11.3463   28.1466   15.7578 C   0  0  0  0  0  0  0  0  0  0  0  0
  -12.2158   25.7430   15.9335 C   0  0  0  0  0  0  0  0  0  0  0  0
  -13.1342   24.9040   16.6213 C   0  0  0  0  0  0  0  0  0  0  0  0
  -13.9511   25.4430   17.6530 C   0  0  0  0  0  0  0  0  0  0  0  0
  -13.8508   26.8189   17.9940 C   0  0  0  0  0  0  0  0  0  0  0  0
  -12.9358   27.6635   17.2908 C   0  0  0  0  0  0  0  0  0  0  0  0
  -12.1264   27.1319   16.2702 C   0  0  0  0  0  0  0  0  0  0  0  0
  1  6  1  0  0  0  0
  2  4  1  0  0  0  0
  3  7  1  0  0  0  0
  4  5  1  0  0  0  0
  6  2  1  0  0  0  0
  7  8  1  0  0  0  0
  8  9  1  0  0  0  0
  9 10  1  0  0  0  0
 10 11  1  0  0  0  0
 10 12  1  0  0  0  0
 11 13  1  0  0  0  0
 13 15  1  0  0  0  0
 14 12  1  0  0  0  0
 15 14  1  0  0  0  0
 16 18  2  0  0  0  0
 16 22  1  0  0  0  0
 17 23  1  0  0  0  0
 17 29  1  0  0  0  0
 18 19  1  0  0  0  0
 18 26  1  0  0  0  0
 19 20  2  0  0  0  0
 20  3  1  0  0  0  0
 20 21  1  0  0  0  0
 21  5  1  0  0  0  0
 21 22  2  0  0  0  0
 23 24  2  0  0  0  0
 24 30  1  0  0  0  0
 25 26  2  0  0  0  0
 25 30  1  0  0  0  0
 26 27  1  0  0  0  0
 27 28  2  0  0  0  0
 28 29  1  0  0  0  0
 29 30  2  0  0  0  0
M  END
>  <CHROM.1>
-61.97094132,-177.46906838,-157.15141123,168.70204717,73.05647531,168.58601145
124.54274124,-119.03865707,-63.46970856,-63.36214409,85.45529770,-12.05437518
21.67265796,17.53462096,2.09570640,-0.66963376,-0.07843054

>  <Name>
1uts_lig

>  <RI>
0

>  <Rbt.Current_Directory>
/home/itssahil/PROJECTS/Mol_Feturizer/New_Systems/rnas/1uts

>  <Rbt.Executable>
rbdock ($Id: //depot/dev/client3/rdock/2013.1/src/exe/rbdock.cxx#4 $)

>  <Rbt.Library>
libRbt.so (2013.1, Build901 2013/11/27)

>  <Rbt.Parameter_File>
/export/apps/rDock/src/rDock_2013.1_src/data/scripts/dock_solv.prm

>  <Rbt.Receptor>
prm/blind_docking_40.prm

>  <SCORE>
-21.0721

>  <SCORE.INTER>
-27.8982

>  <SCORE.INTER.CONST>
1

>  <SCORE.INTER.POLAR>
-1.76398

>  <SCORE.INTER.ROT>
10

>  <SCORE.INTER.SOLV>
12.8603

>  <SCORE.INTER.VDW>
-27.2723

>  <SCORE.INTER.norm>
-0.929941

>  <SCORE.INTRA>
1.12969

>  <SCORE.INTRA.DIHEDRAL>
3.03411

>  <SCORE.INTRA.DIHEDRAL.0>
18.0451

>  <SCORE.INTRA.POLAR>
0.196815

>  <SCORE.INTRA.POLAR.0>
-0.196815

>  <SCORE.INTRA.REPUL>
0

>  <SCORE.INTRA.REPUL.0>
0

>  <SCORE.INTRA.SOLV>
-0.528385

>  <SCORE.INTRA.SOLV.lig_0>
-14.7906

>  <SCORE.INTRA.VDW>
-0.792342

>  <SCORE.INTRA.VDW.0>
-0.411701

>  <SCORE.INTRA.norm>
0.0376564

>  <SCORE.RESTR>
5.69646

>  <SCORE.RESTR.CAVITY>
5.69646

>  <SCORE.RESTR.norm>
0.189882

>  <SCORE.SYSTEM>
0

>  <SCORE.SYSTEM.CONST>
0

>  <SCORE.SYSTEM.DIHEDRAL>
0

>  <SCORE.SYSTEM.SOLV>
0

>  <SCORE.SYSTEM.norm>
0

>  <SCORE.heavy>
30

>  <SCORE.norm>
-0.702403

>  <RMSD>
23.849

$$$$
1uts_lig
 OpenBabel11021811413D
libRbt.so/2013.1/901 2013/11/27
 30 33  0  0  0  0  0  0  0  0999 V2000
  -16.4221   16.4171   14.9162 N   0  0  0  0  0  0  0  0  0  0  0  0
  -14.2547   17.4933   14.4900 C   0  0  0  0  0  0  0  0  0  0  0  0
  -11.5201   20.7729   17.5584 C   0  0  0  0  0  0  0  0  0  0  0  0
  -14.6550   18.6500   15.4103 C   0  0  0  0  0  0  0  0  0  0  0  0
  -13.4742   19.2452   15.9682 O   0  0  0  0  0  0  0  0  0  0  0  0
  -14.9563   16.2120   14.9442 C   0  0  0  0  0  0  0  0  0  0  0  0
  -11.7608   19.3206   17.7160 N   0  0  0  0  0  0  0  0  0  0  0  0
  -11.1079   18.8369   18.9612 C   0  0  0  0  0  0  0  0  0  0  0  0
   -9.5858   18.8701   18.7944 C   0  0  0  0  0  0  0  0  0  0  0  0
   -8.9413   18.5807   20.0950 N   0  0  0  0  0  0  0  0  0  0  0  0
   -8.2512   19.8080   20.5864 C   0  0  0  0  0  0  0  0  0  0  0  0
   -7.9650   17.4675   19.9259 C   0  0  0  0  0  0  0  0  0  0  0  0
   -7.5772   19.5101   21.9355 C   0  0  0  0  0  0  0  0  0  0  0  0
   -7.2867   17.1708   21.2755 C   0  0  0  0  0  0  0  0  0  0  0  0
   -6.5997   18.3976   21.7667 N   0  0  0  0  0  0  0  0  0  0  0  0
  -14.9054   22.7116   15.5594 C   0  0  0  0  0  0  0  0  0  0  0  0
  -14.5338   29.0537   16.8444 N   0  0  0  0  0  0  0  0  0  0  0  0
  -13.9989   23.4792   16.3291 C   0  0  0  0  0  0  0  0  0  0  0  0
  -12.9043   22.8446   16.9746 C   0  0  0  0  0  0  0  0  0  0  0  0
  -12.7143   21.4412   16.8476 C   0  0  0  0  0  0  0  0  0  0  0  0
  -13.6389   20.6666   16.0845 C   0  0  0  0  0  0  0  0  0  0  0  0
  -14.7310   21.3077   15.4380 C   0  0  0  0  0  0  0  0  0  0  0  0
  -13.2191   29.3150   17.2927 C   0  0  0  0  0  0  0  0  0  0  0  0
  -12.4767   28.1176   17.4060 C   0  0  0  0  0  0  0  0  0  0  0  0
  -13.1342   25.6916   16.9098 C   0  0  0  0  0  0  0  0  0  0  0  0
  -14.1935   24.8623   16.4508 C   0  0  0  0  0  0  0  0  0  0  0  0
  -15.4478   25.4386   16.1091 C   0  0  0  0  0  0  0  0  0  0  0  0
  -15.6408   26.8418   16.2242 C   0  0  0  0  0  0  0  0  0  0  0  0
  -14.5688   27.6751   16.6730 C   0  0  0  0  0  0  0  0  0  0  0  0
  -13.3273   27.1067   17.0121 C   0  0  0  0  0  0  0  0  0  0  0  0
  1  6  1  0  0  0  0
  2  4  1  0  0  0  0
  3  7  1  0  0  0  0
  4  5  1  0  0  0  0
  6  2  1  0  0  0  0
  7  8  1  0  0  0  0
  8  9  1  0  0  0  0
  9 10  1  0  0  0  0
 10 11  1  0  0  0  0
 10 12  1  0  0  0  0
 11 13  1  0  0  0  0
 13 15  1  0  0  0  0
 14 12  1  0  0  0  0
 15 14  1  0  0  0  0
 16 18  2  0  0  0  0
 16 22  1  0  0  0  0
 17 23  1  0  0  0  0
 17 29  1  0  0  0  0
 18 19  1  0  0  0  0
 18 26  1  0  0  0  0
 19 20  2  0  0  0  0
 20  3  1  0  0  0  0
 20 21  1  0  0  0  0
 21  5  1  0  0  0  0
 21 22  2  0  0  0  0
 23 24  2  0  0  0  0
 24 30  1  0  0  0  0
 25 26  2  0  0  0  0
 25 30  1  0  0  0  0
 26 27  1  0  0  0  0
 27 28  2  0  0  0  0
 28 29  1  0  0  0  0
 29 30  2  0  0  0  0
M  END
>  <CHROM.1>
51.42642928,124.08993853,-148.15315093,143.51698617,58.58815103,-69.63272890
171.71321815,-111.89809689,-163.58402030,159.68549964,167.63869612,-12.39403550
21.56683448,17.46213993,0.92605518,0.66132743,-3.04551171

>  <Name>
1uts_lig

>  <RI>
0

>  <Rbt.Current_Directory>
/home/itssahil/PROJECTS/Mol_Feturizer/New_Systems/rnas/1uts

>  <Rbt.Executable>
rbdock ($Id: //depot/dev/client3/rdock/2013.1/src/exe/rbdock.cxx#4 $)

>  <Rbt.Library>
libRbt.so (2013.1, Build901 2013/11/27)

>  <Rbt.Parameter_File>
/export/apps/rDock/src/rDock_2013.1_src/data/scripts/dock_solv.prm

>  <Rbt.Receptor>
prm/blind_docking_40.prm

>  <SCORE>
-5.54776

>  <SCORE.INTER>
-15.9858

>  <SCORE.INTER.CONST>
1

>  <SCORE.INTER.POLAR>
-0.829458

>  <SCORE.INTER.ROT>
10

>  <SCORE.INTER.SOLV>
15.0113

>  <SCORE.INTER.VDW>
-23.1628

>  <SCORE.INTER.norm>
-0.53286

>  <SCORE.INTRA>
6.88321

>  <SCORE.INTRA.DIHEDRAL>
-0.402596

>  <SCORE.INTRA.DIHEDRAL.0>
18.0451

>  <SCORE.INTRA.POLAR>
0.052489

>  <SCORE.INTRA.POLAR.0>
-0.196815

>  <SCORE.INTRA.REPUL>
0

>  <SCORE.INTRA.REPUL.0>
0

>  <SCORE.INTRA.SOLV>
-0.0933318

>  <SCORE.INTRA.SOLV.lig_0>
-14.7906

>  <SCORE.INTRA.VDW>
6.95271

>  <SCORE.INTRA.VDW.0>
-0.411701

>  <SCORE.INTRA.norm>
0.22944

>  <SCORE.RESTR>
3.55482

>  <SCORE.RESTR.CAVITY>
3.55482

>  <SCORE.RESTR.norm>
0.118494

>  <SCORE.SYSTEM>
0

>  <SCORE.SYSTEM.CONST>
0

>  <SCORE.SYSTEM.DIHEDRAL>
0

>  <SCORE.SYSTEM.SOLV>
0

>  <SCORE.SYSTEM.norm>
0

>  <SCORE.heavy>
30

>  <SCORE.norm>
-0.184925

>  <RMSD>
23.889

$$$$
1uts_lig
 OpenBabel11021811413D
libRbt.so/2013.1/901 2013/11/27
 30 33  0  0  0  0  0  0  0  0999 V2000
  -16.7555   15.9922   14.4192 N   0  0  0  0  0  0  0  0  0  0  0  0
  -15.0422   17.6393   15.0427 C   0  0  0  0  0  0  0  0  0  0  0  0
  -12.5525   20.1775   18.0817 C   0  0  0  0  0  0  0  0  0  0  0  0
  -14.8231   19.0121   15.6852 C   0  0  0  0  0  0  0  0  0  0  0  0
  -13.4987   19.4741   15.3815 O   0  0  0  0  0  0  0  0  0  0  0  0
  -16.5127   17.2400   15.1778 C   0  0  0  0  0  0  0  0  0  0  0  0
  -11.0967   20.1862   18.3512 N   0  0  0  0  0  0  0  0  0  0  0  0
  -10.6952   18.8978   18.9755 C   0  0  0  0  0  0  0  0  0  0  0  0
   -9.2327   18.5927   18.6386 C   0  0  0  0  0  0  0  0  0  0  0  0
   -8.4501   18.4884   19.8907 N   0  0  0  0  0  0  0  0  0  0  0  0
   -9.1712   17.6026   20.8495 C   0  0  0  0  0  0  0  0  0  0  0  0
   -8.2679   19.8475   20.4742 C   0  0  0  0  0  0  0  0  0  0  0  0
   -8.3631   17.4949   22.1529 C   0  0  0  0  0  0  0  0  0  0  0  0
   -7.4621   19.7405   21.7814 C   0  0  0  0  0  0  0  0  0  0  0  0
   -8.1817   18.8538   22.7376 N   0  0  0  0  0  0  0  0  0  0  0  0
  -13.5626   23.2361   15.1086 C   0  0  0  0  0  0  0  0  0  0  0  0
  -12.5940   29.1071   17.4917 N   0  0  0  0  0  0  0  0  0  0  0  0
  -13.1286   23.6160   16.4011 C   0  0  0  0  0  0  0  0  0  0  0  0
  -12.8033   22.6198   17.3599 C   0  0  0  0  0  0  0  0  0  0  0  0
  -12.9092   21.2420   17.0246 C   0  0  0  0  0  0  0  0  0  0  0  0
  -13.3627   20.8611   15.7259 C   0  0  0  0  0  0  0  0  0  0  0  0
  -13.6839   21.8627   14.7693 C   0  0  0  0  0  0  0  0  0  0  0  0
  -11.6111   29.3846   16.5146 C   0  0  0  0  0  0  0  0  0  0  0  0
  -11.2545   28.2127   15.8096 C   0  0  0  0  0  0  0  0  0  0  0  0
  -12.1147   25.8088   16.0224 C   0  0  0  0  0  0  0  0  0  0  0  0
  -13.0280   24.9764   16.7249 C   0  0  0  0  0  0  0  0  0  0  0  0
  -13.8438   25.5272   17.7512 C   0  0  0  0  0  0  0  0  0  0  0  0
  -13.7475   26.9082   18.0722 C   0  0  0  0  0  0  0  0  0  0  0  0
  -12.8377   27.7459   17.3542 C   0  0  0  0  0  0  0  0  0  0  0  0
  -12.0293   27.2026   16.3389 C   0  0  0  0  0  0  0  0  0  0  0  0
  1  6  1  0  0  0  0
  2  4  1  0  0  0  0
  3  7  1  0  0  0  0
  4  5  1  0  0  0  0
  6  2  1  0  0  0  0
  7  8  1  0  0  0  0
  8  9  1  0  0  0  0
  9 10  1  0  0  0  0
 10 11  1  0  0  0  0
 10 12  1  0  0  0  0
 11 13  1  0  0  0  0
 13 15  1  0  0  0  0
 14 12  1  0  0  0  0
 15 14  1  0  0  0  0
 16 18  2  0  0  0  0
 16 22  1  0  0  0  0
 17 23  1  0  0  0  0
 17 29  1  0  0  0  0
 18 19  1  0  0  0  0
 18 26  1  0  0  0  0
 19 20  2  0  0  0  0
 20  3  1  0  0  0  0
 20 21  1  0  0  0  0
 21  5  1  0  0  0  0
 21 22  2  0  0  0  0
 23 24  2  0  0  0  0
 24 30  1  0  0  0  0
 25 26  2  0  0  0  0
 25 30  1  0  0  0  0
 26 27  1  0  0  0  0
 27 28  2  0  0  0  0
 28 29  1  0  0  0  0
 29 30  2  0  0  0  0
M  END
>  <CHROM.1>
76.80793545,-171.31767185,-160.33673186,167.91884244,173.36129633,152.20091993
120.20626444,48.07527078,-62.83332657,-69.02357412,90.74723151,-12.05721186
21.71226562,17.58980062,1.26100279,0.73044508,3.05674949

>  <Name>
1uts_lig

>  <RI>
0

>  <Rbt.Current_Directory>
/home/itssahil/PROJECTS/Mol_Feturizer/New_Systems/rnas/1uts

>  <Rbt.Executable>
rbdock ($Id: //depot/dev/client3/rdock/2013.1/src/exe/rbdock.cxx#4 $)

>  <Rbt.Library>
libRbt.so (2013.1, Build901 2013/11/27)

>  <Rbt.Parameter_File>
/export/apps/rDock/src/rDock_2013.1_src/data/scripts/dock_solv.prm

>  <Rbt.Receptor>
prm/blind_docking_40.prm

>  <SCORE>
-20.3018

>  <SCORE.INTER>
-29.5884

>  <SCORE.INTER.CONST>
1

>  <SCORE.INTER.POLAR>
-3.23203

>  <SCORE.INTER.ROT>
10

>  <SCORE.INTER.SOLV>
15.8638

>  <SCORE.INTER.VDW>
-24.5067

>  <SCORE.INTER.norm>
-0.986278

>  <SCORE.INTRA>
4.06657

>  <SCORE.INTRA.DIHEDRAL>
1.397

>  <SCORE.INTRA.DIHEDRAL.0>
18.0451

>  <SCORE.INTRA.POLAR>
0.196815

>  <SCORE.INTRA.POLAR.0>
-0.196815

>  <SCORE.INTRA.REPUL>
0

>  <SCORE.INTRA.REPUL.0>
0

>  <SCORE.INTRA.SOLV>
-0.549338

>  <SCORE.INTRA.SOLV.lig_0>
-14.7906

>  <SCORE.INTRA.VDW>
2.97356

>  <SCORE.INTRA.VDW.0>
-0.411701

>  <SCORE.INTRA.norm>
0.135552

>  <SCORE.RESTR>
5.21996

>  <SCORE.RESTR.CAVITY>
5.21996

>  <SCORE.RESTR.norm>
0.173999

>  <SCORE.SYSTEM>
0

>  <SCORE.SYSTEM.CONST>
0

>  <SCORE.SYSTEM.DIHEDRAL>
0

>  <SCORE.SYSTEM.SOLV>
0

>  <SCORE.SYSTEM.norm>
0

>  <SCORE.heavy>
30

>  <SCORE.norm>
-0.676728

>  <RMSD>
23.907

$$$$
1uts_lig
 OpenBabel11021811413D
libRbt.so/2013.1/901 2013/11/27
 30 33  0  0  0  0  0  0  0  0999 V2000
  -15.0871   15.7465   14.4138 N   0  0  0  0  0  0  0  0  0  0  0  0
  -13.9320   17.8864   14.0626 C   0  0  0  0  0  0  0  0  0  0  0  0
  -12.9754   20.2615   17.7917 C   0  0  0  0  0  0  0  0  0  0  0  0
  -13.4750   19.1576   14.7841 C   0  0  0  0  0  0  0  0  0  0  0  0
  -14.6102   19.7985   15.3846 O   0  0  0  0  0  0  0  0  0  0  0  0
  -14.9014   17.1111   14.9566 C   0  0  0  0  0  0  0  0  0  0  0  0
  -11.5362   20.4483   18.0848 N   0  0  0  0  0  0  0  0  0  0  0  0
  -10.8906   19.1245   18.2885 C   0  0  0  0  0  0  0  0  0  0  0  0
   -9.3867   19.3105   18.5107 C   0  0  0  0  0  0  0  0  0  0  0  0
   -9.0266   18.8358   19.8656 N   0  0  0  0  0  0  0  0  0  0  0  0
   -8.2371   19.8912   20.5634 C   0  0  0  0  0  0  0  0  0  0  0  0
   -8.2318   17.5801   19.7543 C   0  0  0  0  0  0  0  0  0  0  0  0
   -7.8579   19.4002   21.9699 C   0  0  0  0  0  0  0  0  0  0  0  0
   -7.8483   17.0894   21.1620 C   0  0  0  0  0  0  0  0  0  0  0  0
   -7.0620   18.1449   21.8591 N   0  0  0  0  0  0  0  0  0  0  0  0
  -14.4461   23.5668   15.3164 C   0  0  0  0  0  0  0  0  0  0  0  0
  -12.4214   29.1811   17.6758 N   0  0  0  0  0  0  0  0  0  0  0  0
  -13.6785   23.8326   16.4755 C   0  0  0  0  0  0  0  0  0  0  0  0
  -13.2054   22.7569   17.2734 C   0  0  0  0  0  0  0  0  0  0  0  0
  -13.4978   21.4137   16.9099 C   0  0  0  0  0  0  0  0  0  0  0  0
  -14.2858   21.1485   15.7498 C   0  0  0  0  0  0  0  0  0  0  0  0
  -14.7540   22.2291   14.9532 C   0  0  0  0  0  0  0  0  0  0  0  0
  -11.4711   29.3725   16.6471 C   0  0  0  0  0  0  0  0  0  0  0  0
  -11.3006   28.1909   15.8906 C   0  0  0  0  0  0  0  0  0  0  0  0
  -12.4310   25.9006   16.0927 C   0  0  0  0  0  0  0  0  0  0  0  0
  -13.3955   25.1596   16.8283 C   0  0  0  0  0  0  0  0  0  0  0  0
  -14.0773   25.7686   17.9176 C   0  0  0  0  0  0  0  0  0  0  0  0
  -13.7961   27.1167   18.2684 C   0  0  0  0  0  0  0  0  0  0  0  0
  -12.8354   27.8640   17.5176 C   0  0  0  0  0  0  0  0  0  0  0  0
  -12.1595   27.2630   16.4400 C   0  0  0  0  0  0  0  0  0  0  0  0
  1  6  1  0  0  0  0
  2  4  1  0  0  0  0
  3  7  1  0  0  0  0
  4  5  1  0  0  0  0
  6  2  1  0  0  0  0
  7  8  1  0  0  0  0
  8  9  1  0  0  0  0
  9 10  1  0  0  0  0
 10 11  1  0  0  0  0
 10 12  1  0  0  0  0
 11 13  1  0  0  0  0
 13 15  1  0  0  0  0
 14 12  1  0  0  0  0
 15 14  1  0  0  0  0
 16 18  2  0  0  0  0
 16 22  1  0  0  0  0
 17 23  1  0  0  0  0
 17 29  1  0  0  0  0
 18 19  1  0  0  0  0
 18 26  1  0  0  0  0
 19 20  2  0  0  0  0
 20  3  1  0  0  0  0
 20 21  1  0  0  0  0
 21  5  1  0  0  0  0
 21 22  2  0  0  0  0
 23 24  2  0  0  0  0
 24 30  1  0  0  0  0
 25 26  2  0  0  0  0
 25 30  1  0  0  0  0
 26 27  1  0  0  0  0
 27 28  2  0  0  0  0
 28 29  1  0  0  0  0
 29 30  2  0  0  0  0
M  END
>  <CHROM.1>
-172.29691726,-44.84754318,-151.18836649,-164.52777574,-166.48399936,176.71337102
117.08334440,-129.29826331,-74.23222132,-48.60980291,-76.43845718,-12.03602970
21.80435034,17.42175634,1.16510302,0.73269719,-3.09685509

>  <Name>
1uts_lig

>  <RI>
0

>  <Rbt.Current_Directory>
/home/itssahil/PROJECTS/Mol_Feturizer/New_Systems/rnas/1uts

>  <Rbt.Executable>
rbdock ($Id: //depot/dev/client3/rdock/2013.1/src/exe/rbdock.cxx#4 $)

>  <Rbt.Library>
libRbt.so (2013.1, Build901 2013/11/27)

>  <Rbt.Parameter_File>
/export/apps/rDock/src/rDock_2013.1_src/data/scripts/dock_solv.prm

>  <Rbt.Receptor>
prm/blind_docking_40.prm

>  <SCORE>
-27.6576

>  <SCORE.INTER>
-36.2068

>  <SCORE.INTER.CONST>
1

>  <SCORE.INTER.POLAR>
-4.00615

>  <SCORE.INTER.ROT>
10

>  <SCORE.INTER.SOLV>
14.9921

>  <SCORE.INTER.VDW>
-26.0481

>  <SCORE.INTER.norm>
-1.20689

>  <SCORE.INTRA>
2.69891

>  <SCORE.INTRA.DIHEDRAL>
4.97215

>  <SCORE.INTRA.DIHEDRAL.0>
18.0451

>  <SCORE.INTRA.POLAR>
0.196815

>  <SCORE.INTRA.POLAR.0>
-0.196815

>  <SCORE.INTRA.REPUL>
0

>  <SCORE.INTRA.REPUL.0>
0

>  <SCORE.INTRA.SOLV>
-0.488079

>  <SCORE.INTRA.SOLV.lig_0>
-14.7906

>  <SCORE.INTRA.VDW>
-0.212297

>  <SCORE.INTRA.VDW.0>
-0.411701

>  <SCORE.INTRA.norm>
0.0899637

>  <SCORE.RESTR>
5.85028

>  <SCORE.RESTR.CAVITY>
5.85028

>  <SCORE.RESTR.norm>
0.195009

>  <SCORE.SYSTEM>
0

>  <SCORE.SYSTEM.CONST>
0

>  <SCORE.SYSTEM.DIHEDRAL>
0

>  <SCORE.SYSTEM.SOLV>
0

>  <SCORE.SYSTEM.norm>
0

>  <SCORE.heavy>
30

>  <SCORE.norm>
-0.921921

>  <RMSD>
23.965

$$$$
1uts_lig
 OpenBabel11021811413D
libRbt.so/2013.1/901 2013/11/27
 30 33  0  0  0  0  0  0  0  0999 V2000
  -17.2214   16.2188   14.8981 N   0  0  0  0  0  0  0  0  0  0  0  0
  -15.4197   17.8660   15.1766 C   0  0  0  0  0  0  0  0  0  0  0  0
  -12.6953   20.2901   18.0375 C   0  0  0  0  0  0  0  0  0  0  0  0
  -15.0113   19.1414   15.9195 C   0  0  0  0  0  0  0  0  0  0  0  0
  -13.7775   19.6342   15.3767 O   0  0  0  0  0  0  0  0  0  0  0  0
  -16.7761   17.3843   15.6948 C   0  0  0  0  0  0  0  0  0  0  0  0
  -11.2247   20.2193   18.1935 N   0  0  0  0  0  0  0  0  0  0  0  0
  -10.8140   18.8111   18.4371 C   0  0  0  0  0  0  0  0  0  0  0  0
   -9.2880   18.7260   18.5335 C   0  0  0  0  0  0  0  0  0  0  0  0
   -8.8753   18.8634   19.9483 N   0  0  0  0  0  0  0  0  0  0  0  0
   -7.3916   18.7465   20.0420 C   0  0  0  0  0  0  0  0  0  0  0  0
   -9.5330   17.8008   20.7603 C   0  0  0  0  0  0  0  0  0  0  0  0
   -6.9595   18.8848   21.5108 C   0  0  0  0  0  0  0  0  0  0  0  0
   -9.0982   17.9361   22.2307 C   0  0  0  0  0  0  0  0  0  0  0  0
   -7.6161   17.8216   22.3232 N   0  0  0  0  0  0  0  0  0  0  0  0
  -13.7668   23.3992   15.1393 C   0  0  0  0  0  0  0  0  0  0  0  0
  -12.5508   29.2220   17.5303 N   0  0  0  0  0  0  0  0  0  0  0  0
  -13.2667   23.7567   16.4142 C   0  0  0  0  0  0  0  0  0  0  0  0
  -12.9219   22.7442   17.3488 C   0  0  0  0  0  0  0  0  0  0  0  0
  -13.0744   21.3725   17.0067 C   0  0  0  0  0  0  0  0  0  0  0  0
  -13.5943   21.0144   15.7266 C   0  0  0  0  0  0  0  0  0  0  0  0
  -13.9349   22.0322   14.7940 C   0  0  0  0  0  0  0  0  0  0  0  0
  -11.5742   29.4762   16.5406 C   0  0  0  0  0  0  0  0  0  0  0  0
  -11.2634   28.2986   15.8234 C   0  0  0  0  0  0  0  0  0  0  0  0
  -12.1926   25.9204   16.0341 C   0  0  0  0  0  0  0  0  0  0  0  0
  -13.1204   25.1113   16.7447 C   0  0  0  0  0  0  0  0  0  0  0  0
  -13.9043   25.6797   17.7862 C   0  0  0  0  0  0  0  0  0  0  0  0
  -13.7617   27.0551   18.1142 C   0  0  0  0  0  0  0  0  0  0  0  0
  -12.8375   27.8697   17.3880 C   0  0  0  0  0  0  0  0  0  0  0  0
  -12.0606   27.3089   16.3578 C   0  0  0  0  0  0  0  0  0  0  0  0
  1  6  1  0  0  0  0
  2  4  1  0  0  0  0
  3  7  1  0  0  0  0
  4  5  1  0  0  0  0
  6  2  1  0  0  0  0
  7  8  1  0  0  0  0
  8  9  1  0  0  0  0
  9 10  1  0  0  0  0
 10 11  1  0  0  0  0
 10 12  1  0  0  0  0
 11 13  1  0  0  0  0
 13 15  1  0  0  0  0
 14 12  1  0  0  0  0
 15 14  1  0  0  0  0
 16 18  2  0  0  0  0
 16 22  1  0  0  0  0
 17 23  1  0  0  0  0
 17 29  1  0  0  0  0
 18 19  1  0  0  0  0
 18 26  1  0  0  0  0
 19 20  2  0  0  0  0
 20  3  1  0  0  0  0
 20 21  1  0  0  0  0
 21  5  1  0  0  0  0
 21 22  2  0  0  0  0
 23 24  2  0  0  0  0
 24 30  1  0  0  0  0
 25 26  2  0  0  0  0
 25 30  1  0  0  0  0
 26 27  1  0  0  0  0
 27 28  2  0  0  0  0
 28 29  1  0  0  0  0
 29 30  2  0  0  0  0
M  END
>  <CHROM.1>
-50.22133780,-176.62502998,-145.21400696,161.25374909,175.27073596,177.36991581
92.14139012,178.62203444,-64.63300160,-71.71389149,81.75830571,-12.15587201
21.74118062,17.58122110,1.24980266,0.65207802,3.03538556

>  <Name>
1uts_lig

>  <RI>
0

>  <Rbt.Current_Directory>
/home/itssahil/PROJECTS/Mol_Feturizer/New_Systems/rnas/1uts

>  <Rbt.Executable>
rbdock ($Id: //depot/dev/client3/rdock/2013.1/src/exe/rbdock.cxx#4 $)

>  <Rbt.Library>
libRbt.so (2013.1, Build901 2013/11/27)

>  <Rbt.Parameter_File>
/export/apps/rDock/src/rDock_2013.1_src/data/scripts/dock_solv.prm

>  <Rbt.Receptor>
prm/blind_docking_40.prm

>  <SCORE>
-11.6486

>  <SCORE.INTER>
-17.2668

>  <SCORE.INTER.CONST>
1

>  <SCORE.INTER.POLAR>
-3.59437

>  <SCORE.INTER.ROT>
10

>  <SCORE.INTER.SOLV>
14.4843

>  <SCORE.INTER.VDW>
-14.6247

>  <SCORE.INTER.norm>
-0.575559

>  <SCORE.INTRA>
0.0180067

>  <SCORE.INTRA.DIHEDRAL>
-1.42574

>  <SCORE.INTRA.DIHEDRAL.0>
18.0451

>  <SCORE.INTRA.POLAR>
0.196815

>  <SCORE.INTRA.POLAR.0>
-0.196815

>  <SCORE.INTRA.REPUL>
0

>  <SCORE.INTRA.REPUL.0>
0

>  <SCORE.INTRA.SOLV>
-0.505261

>  <SCORE.INTRA.SOLV.lig_0>
-14.7906

>  <SCORE.INTRA.VDW>
0.314336

>  <SCORE.INTRA.VDW.0>
-0.411701

>  <SCORE.INTRA.norm>
0.000600225

>  <SCORE.RESTR>
5.60017

>  <SCORE.RESTR.CAVITY>
5.60017

>  <SCORE.RESTR.norm>
0.186672

>  <SCORE.SYSTEM>
0

>  <SCORE.SYSTEM.CONST>
0

>  <SCORE.SYSTEM.DIHEDRAL>
0

>  <SCORE.SYSTEM.SOLV>
0

>  <SCORE.SYSTEM.norm>
0

>  <SCORE.heavy>
30

>  <SCORE.norm>
-0.388286

>  <RMSD>
23.979

$$$$
1uts_lig
 OpenBabel11021811413D
libRbt.so/2013.1/901 2013/11/27
 30 33  0  0  0  0  0  0  0  0999 V2000
  -15.0841   15.5787   14.2634 N   0  0  0  0  0  0  0  0  0  0  0  0
  -14.4255   17.8788   14.8226 C   0  0  0  0  0  0  0  0  0  0  0  0
  -11.9733   21.0641   18.3235 C   0  0  0  0  0  0  0  0  0  0  0  0
  -14.6688   18.9544   15.8852 C   0  0  0  0  0  0  0  0  0  0  0  0
  -13.4193   19.5649   16.2396 O   0  0  0  0  0  0  0  0  0  0  0  0
  -15.5501   16.8432   14.8761 C   0  0  0  0  0  0  0  0  0  0  0  0
  -11.1605   20.0048   17.6838 N   0  0  0  0  0  0  0  0  0  0  0  0
  -10.9373   18.8943   18.6472 C   0  0  0  0  0  0  0  0  0  0  0  0
   -9.4410   18.5809   18.7384 C   0  0  0  0  0  0  0  0  0  0  0  0
   -9.0323   18.5392   20.1605 N   0  0  0  0  0  0  0  0  0  0  0  0
   -7.7019   17.8745   20.2711 C   0  0  0  0  0  0  0  0  0  0  0  0
  -10.0541   17.7916   20.9466 C   0  0  0  0  0  0  0  0  0  0  0  0
   -7.2758   17.8259   21.7473 C   0  0  0  0  0  0  0  0  0  0  0  0
   -9.6266   17.7391   22.4244 C   0  0  0  0  0  0  0  0  0  0  0  0
   -8.2968   17.0773   22.5339 N   0  0  0  0  0  0  0  0  0  0  0  0
  -14.5279   23.0662   15.3773 C   0  0  0  0  0  0  0  0  0  0  0  0
  -14.2949   29.4255   16.5599 N   0  0  0  0  0  0  0  0  0  0  0  0
  -13.8645   23.8212   16.3738 C   0  0  0  0  0  0  0  0  0  0  0  0
  -13.0385   23.1662   17.3257 C   0  0  0  0  0  0  0  0  0  0  0  0
  -12.8735   21.7546   17.2790 C   0  0  0  0  0  0  0  0  0  0  0  0
  -13.5564   20.9934   16.2834 C   0  0  0  0  0  0  0  0  0  0  0  0
  -14.3794   21.6549   15.3312 C   0  0  0  0  0  0  0  0  0  0  0  0
  -12.9716   29.6887   16.9809 C   0  0  0  0  0  0  0  0  0  0  0  0
  -12.2498   28.4867   17.1595 C   0  0  0  0  0  0  0  0  0  0  0  0
  -12.9550   26.0480   16.8143 C   0  0  0  0  0  0  0  0  0  0  0  0
  -14.0332   25.2124   16.4144 C   0  0  0  0  0  0  0  0  0  0  0  0
  -15.2801   25.7904   16.0491 C   0  0  0  0  0  0  0  0  0  0  0  0
  -15.4469   27.2013   16.0819 C   0  0  0  0  0  0  0  0  0  0  0  0
  -14.3561   28.0400   16.4713 C   0  0  0  0  0  0  0  0  0  0  0  0
  -13.1219   27.4700   16.8335 C   0  0  0  0  0  0  0  0  0  0  0  0
  1  6  1  0  0  0  0
  2  4  1  0  0  0  0
  3  7  1  0  0  0  0
  4  5  1  0  0  0  0
  6  2  1  0  0  0  0
  7  8  1  0  0  0  0
  8  9  1  0  0  0  0
  9 10  1  0  0  0  0
 10 11  1  0  0  0  0
 10 12  1  0  0  0  0
 11 13  1  0  0  0  0
 13 15  1  0  0  0  0
 14 12  1  0  0  0  0
 15 14  1  0  0  0  0
 16 18  2  0  0  0  0
 16 22  1  0  0  0  0
 17 23  1  0  0  0  0
 17 29  1  0  0  0  0
 18 19  1  0  0  0  0
 18 26  1  0  0  0  0
 19 20  2  0  0  0  0
 20  3  1  0  0  0  0
 20 21  1  0  0  0  0
 21  5  1  0  0  0  0
 21 22  2  0  0  0  0
 23 24  2  0  0  0  0
 24 30  1  0  0  0  0
 25 26  2  0  0  0  0
 25 30  1  0  0  0  0
 26 27  1  0  0  0  0
 27 28  2  0  0  0  0
 28 29  1  0  0  0  0
 29 30  2  0  0  0  0
M  END
>  <CHROM.1>
171.04179382,155.41966535,-147.39607580,134.48625592,-158.31987137,-127.80520394
130.16383152,164.40847211,-145.46195139,-139.09007952,142.29469190,-12.45205153
21.63544861,17.54242169,1.03756716,0.77297606,-3.08156920

>  <Name>
1uts_lig

>  <RI>
0

>  <Rbt.Current_Directory>
/home/itssahil/PROJECTS/Mol_Feturizer/New_Systems/rnas/1uts

>  <Rbt.Executable>
rbdock ($Id: //depot/dev/client3/rdock/2013.1/src/exe/rbdock.cxx#4 $)

>  <Rbt.Library>
libRbt.so (2013.1, Build901 2013/11/27)

>  <Rbt.Parameter_File>
/export/apps/rDock/src/rDock_2013.1_src/data/scripts/dock_solv.prm

>  <Rbt.Receptor>
prm/blind_docking_40.prm

>  <SCORE>
-24.4055

>  <SCORE.INTER>
-37.6169

>  <SCORE.INTER.CONST>
1

>  <SCORE.INTER.POLAR>
-4.08352

>  <SCORE.INTER.ROT>
10

>  <SCORE.INTER.SOLV>
16.2508

>  <SCORE.INTER.VDW>
-27.1498

>  <SCORE.INTER.norm>
-1.2539

>  <SCORE.INTRA>
8.0695

>  <SCORE.INTRA.DIHEDRAL>
7.23974

>  <SCORE.INTRA.DIHEDRAL.0>
18.0451

>  <SCORE.INTRA.POLAR>
-0.551626

>  <SCORE.INTRA.POLAR.0>
-0.196815

>  <SCORE.INTRA.REPUL>
0

>  <SCORE.INTRA.REPUL.0>
0

>  <SCORE.INTRA.SOLV>
-0.292251

>  <SCORE.INTRA.SOLV.lig_0>
-14.7906

>  <SCORE.INTRA.VDW>
6.47129

>  <SCORE.INTRA.VDW.0>
-0.411701

>  <SCORE.INTRA.norm>
0.268983

>  <SCORE.RESTR>
5.14182

>  <SCORE.RESTR.CAVITY>
5.14182

>  <SCORE.RESTR.norm>
0.171394

>  <SCORE.SYSTEM>
0

>  <SCORE.SYSTEM.CONST>
0

>  <SCORE.SYSTEM.DIHEDRAL>
0

>  <SCORE.SYSTEM.SOLV>
0

>  <SCORE.SYSTEM.norm>
0

>  <SCORE.heavy>
30

>  <SCORE.norm>
-0.813518

>  <RMSD>
23.989

$$$$
1uts_lig
 OpenBabel11021811413D
libRbt.so/2013.1/901 2013/11/27
 30 33  0  0  0  0  0  0  0  0999 V2000
  -15.3805   17.1370   15.1698 N   0  0  0  0  0  0  0  0  0  0  0  0
  -13.9788   19.0224   14.4503 C   0  0  0  0  0  0  0  0  0  0  0  0
  -12.8877   23.2185   17.4870 C   0  0  0  0  0  0  0  0  0  0  0  0
  -14.5742   20.0731   15.3920 C   0  0  0  0  0  0  0  0  0  0  0  0
  -13.6647   21.1771   15.5096 O   0  0  0  0  0  0  0  0  0  0  0  0
  -15.0685   18.0330   14.0334 C   0  0  0  0  0  0  0  0  0  0  0  0
  -13.9904   23.3061   16.5029 N   0  0  0  0  0  0  0  0  0  0  0  0
  -13.5807   24.1747   15.3676 C   0  0  0  0  0  0  0  0  0  0  0  0
  -14.6757   25.2072   15.0841 C   0  0  0  0  0  0  0  0  0  0  0  0
  -14.5232   26.3533   16.0083 N   0  0  0  0  0  0  0  0  0  0  0  0
  -13.1015   26.8034   16.0041 C   0  0  0  0  0  0  0  0  0  0  0  0
  -14.9338   25.9400   17.3800 C   0  0  0  0  0  0  0  0  0  0  0  0
  -12.9385   27.9915   16.9659 C   0  0  0  0  0  0  0  0  0  0  0  0
  -14.7675   27.1279   18.3448 C   0  0  0  0  0  0  0  0  0  0  0  0
  -13.3479   27.5784   18.3382 N   0  0  0  0  0  0  0  0  0  0  0  0
  -10.9511   19.2893   17.3272 C   0  0  0  0  0  0  0  0  0  0  0  0
   -6.3910   18.7559   21.7766 N   0  0  0  0  0  0  0  0  0  0  0  0
  -10.5360   20.2489   18.2812 C   0  0  0  0  0  0  0  0  0  0  0  0
  -11.1675   21.5203   18.3273 C   0  0  0  0  0  0  0  0  0  0  0  0
  -12.2174   21.8313   17.4202 C   0  0  0  0  0  0  0  0  0  0  0  0
  -12.6233   20.8681   16.4483 C   0  0  0  0  0  0  0  0  0  0  0  0
  -11.9897   19.5958   16.4089 C   0  0  0  0  0  0  0  0  0  0  0  0
   -6.5570   17.3574   21.6575 C   0  0  0  0  0  0  0  0  0  0  0  0
   -7.6314   17.0479   20.7929 C   0  0  0  0  0  0  0  0  0  0  0  0
   -9.2019   18.5774   19.4669 C   0  0  0  0  0  0  0  0  0  0  0  0
   -9.4992   19.9356   19.1714 C   0  0  0  0  0  0  0  0  0  0  0  0
   -8.7389   20.9751   19.7745 C   0  0  0  0  0  0  0  0  0  0  0  0
   -7.6822   20.6560   20.6695 C   0  0  0  0  0  0  0  0  0  0  0  0
   -7.3765   19.2882   20.9540 C   0  0  0  0  0  0  0  0  0  0  0  0
   -8.1280   18.2585   20.3587 C   0  0  0  0  0  0  0  0  0  0  0  0
  1  6  1  0  0  0  0
  2  4  1  0  0  0  0
  3  7  1  0  0  0  0
  4  5  1  0  0  0  0
  6  2  1  0  0  0  0
  7  8  1  0  0  0  0
  8  9  1  0  0  0  0
  9 10  1  0  0  0  0
 10 11  1  0  0  0  0
 10 12  1  0  0  0  0
 11 13  1  0  0  0  0
 13 15  1  0  0  0  0
 14 12  1  0  0  0  0
 15 14  1  0  0  0  0
 16 18  2  0  0  0  0
 16 22  1  0  0  0  0
 17 23  1  0  0  0  0
 17 29  1  0  0  0  0
 18 19  1  0  0  0  0
 18 26  1  0  0  0  0
 19 20  2  0  0  0  0
 20  3  1  0  0  0  0
 20 21  1  0  0  0  0
 21  5  1  0  0  0  0
 21 22  2  0  0  0  0
 23 24  2  0  0  0  0
 24 30  1  0  0  0  0
 25 26  2  0  0  0  0
 25 30  1  0  0  0  0
 26 27  1  0  0  0  0
 27 28  2  0  0  0  0
 28 29  1  0  0  0  0
 29 30  2  0  0  0  0
M  END
>  <CHROM.1>
-59.35278866,-165.38977066,-106.81090708,-80.70185474,-73.66632351,-131.02214399
82.97356550,48.70106059,-23.03545972,-177.34601060,-135.74264594,-11.88455798
21.67381601,17.61187447,2.50491169,-0.70093389,0.19428674

>  <Name>
1uts_lig

>  <RI>
0

>  <Rbt.Current_Directory>
/home/itssahil/PROJECTS/Mol_Feturizer/New_Systems/rnas/1uts

>  <Rbt.Executable>
rbdock ($Id: //depot/dev/client3/rdock/2013.1/src/exe/rbdock.cxx#4 $)

>  <Rbt.Library>
libRbt.so (2013.1, Build901 2013/11/27)

>  <Rbt.Parameter_File>
/export/apps/rDock/src/rDock_2013.1_src/data/scripts/dock_solv.prm

>  <Rbt.Receptor>
prm/blind_docking_40.prm

>  <SCORE>
-1.4663

>  <SCORE.INTER>
-14.897

>  <SCORE.INTER.CONST>
1

>  <SCORE.INTER.POLAR>
-0.774597

>  <SCORE.INTER.ROT>
10

>  <SCORE.INTER.SOLV>
12.8512

>  <SCORE.INTER.VDW>
-21.8997

>  <SCORE.INTER.norm>
-0.496568

>  <SCORE.INTRA>
10.8319

>  <SCORE.INTRA.DIHEDRAL>
-2.26905

>  <SCORE.INTRA.DIHEDRAL.0>
18.0451

>  <SCORE.INTRA.POLAR>
-0.199046

>  <SCORE.INTRA.POLAR.0>
-0.196815

>  <SCORE.INTRA.REPUL>
0

>  <SCORE.INTRA.REPUL.0>
0

>  <SCORE.INTRA.SOLV>
0.274438

>  <SCORE.INTRA.SOLV.lig_0>
-14.7906

>  <SCORE.INTRA.VDW>
12.5059

>  <SCORE.INTRA.VDW.0>
-0.411701

>  <SCORE.INTRA.norm>
0.361062

>  <SCORE.RESTR>
2.59886

>  <SCORE.RESTR.CAVITY>
2.59886

>  <SCORE.RESTR.norm>
0.0866285

>  <SCORE.SYSTEM>
0

>  <SCORE.SYSTEM.CONST>
0

>  <SCORE.SYSTEM.DIHEDRAL>
0

>  <SCORE.SYSTEM.SOLV>
0

>  <SCORE.SYSTEM.norm>
0

>  <SCORE.heavy>
30

>  <SCORE.norm>
-0.0488768

>  <RMSD>
24.611

$$$$
1uts_lig
 OpenBabel11021811413D
libRbt.so/2013.1/901 2013/11/27
 30 33  0  0  0  0  0  0  0  0999 V2000
  -15.3857   19.8319   13.2652 N   0  0  0  0  0  0  0  0  0  0  0  0
  -15.1198   20.2739   15.6676 C   0  0  0  0  0  0  0  0  0  0  0  0
  -12.5561   23.2343   17.8607 C   0  0  0  0  0  0  0  0  0  0  0  0
  -14.7443   21.7541   15.5528 C   0  0  0  0  0  0  0  0  0  0  0  0
  -13.3264   21.8724   15.3641 O   0  0  0  0  0  0  0  0  0  0  0  0
  -14.5717   19.5119   14.4596 C   0  0  0  0  0  0  0  0  0  0  0  0
  -12.4507   24.0196   16.6100 N   0  0  0  0  0  0  0  0  0  0  0  0
  -13.7745   24.6083   16.2752 C   0  0  0  0  0  0  0  0  0  0  0  0
  -14.1204   25.7104   17.2808 C   0  0  0  0  0  0  0  0  0  0  0  0
  -15.5910   25.8544   17.3674 N   0  0  0  0  0  0  0  0  0  0  0  0
  -16.0790   26.6364   16.1952 C   0  0  0  0  0  0  0  0  0  0  0  0
  -15.9457   26.5466   18.6386 C   0  0  0  0  0  0  0  0  0  0  0  0
  -17.6059   26.7913   16.2838 C   0  0  0  0  0  0  0  0  0  0  0  0
  -17.4743   26.7056   18.7266 C   0  0  0  0  0  0  0  0  0  0  0  0
  -17.9613   27.4847   17.5543 N   0  0  0  0  0  0  0  0  0  0  0  0
  -11.6122   19.0158   17.1341 C   0  0  0  0  0  0  0  0  0  0  0  0
   -8.1617   16.7623   22.0913 N   0  0  0  0  0  0  0  0  0  0  0  0
  -11.2085   19.6379   18.3396 C   0  0  0  0  0  0  0  0  0  0  0  0
  -11.5172   21.0053   18.5685 C   0  0  0  0  0  0  0  0  0  0  0  0
  -12.2332   21.7506   17.5919 C   0  0  0  0  0  0  0  0  0  0  0  0
  -12.6251   21.1257   16.3699 C   0  0  0  0  0  0  0  0  0  0  0  0
  -12.3160   19.7558   16.1476 C   0  0  0  0  0  0  0  0  0  0  0  0
   -6.8966   16.9979   21.5067 C   0  0  0  0  0  0  0  0  0  0  0  0
   -7.0200   17.7698   20.3292 C   0  0  0  0  0  0  0  0  0  0  0  0
   -9.0896   18.7677   19.1956 C   0  0  0  0  0  0  0  0  0  0  0  0
  -10.5015   18.8971   19.2972 C   0  0  0  0  0  0  0  0  0  0  0  0
  -11.1942   18.2801   20.3750 C   0  0  0  0  0  0  0  0  0  0  0  0
  -10.4753   17.5372   21.3501 C   0  0  0  0  0  0  0  0  0  0  0  0
   -9.0534   17.4204   21.2529 C   0  0  0  0  0  0  0  0  0  0  0  0
   -8.3665   18.0297   20.1869 C   0  0  0  0  0  0  0  0  0  0  0  0
  1  6  1  0  0  0  0
  2  4  1  0  0  0  0
  3  7  1  0  0  0  0
  4  5  1  0  0  0  0
  6  2  1  0  0  0  0
  7  8  1  0  0  0  0
  8  9  1  0  0  0  0
  9 10  1  0  0  0  0
 10 11  1  0  0  0  0
 10 12  1  0  0  0  0
 11 13  1  0  0  0  0
 13 15  1  0  0  0  0
 14 12  1  0  0  0  0
 15 14  1  0  0  0  0
 16 18  2  0  0  0  0
 16 22  1  0  0  0  0
 17 23  1  0  0  0  0
 17 29  1  0  0  0  0
 18 19  1  0  0  0  0
 18 26  1  0  0  0  0
 19 20  2  0  0  0  0
 20  3  1  0  0  0  0
 20 21  1  0  0  0  0
 21  5  1  0  0  0  0
 21 22  2  0  0  0  0
 23 24  2  0  0  0  0
 24 30  1  0  0  0  0
 25 26  2  0  0  0  0
 25 30  1  0  0  0  0
 26 27  1  0  0  0  0
 27 28  2  0  0  0  0
 28 29  1  0  0  0  0
 29 30  2  0  0  0  0
M  END
>  <CHROM.1>
74.71012198,-53.59360420,117.73877496,-51.48966680,-73.95329827,70.00626273
-153.95057736,-78.67938079,85.10094904,142.89678173,-91.33189563,-12.78841234
21.59721270,17.79233980,2.83927046,-0.83651169,0.74374643

>  <Name>
1uts_lig

>  <RI>
0

>  <Rbt.Current_Directory>
/home/itssahil/PROJECTS/Mol_Feturizer/New_Systems/rnas/1uts

>  <Rbt.Executable>
rbdock ($Id: //depot/dev/client3/rdock/2013.1/src/exe/rbdock.cxx#4 $)

>  <Rbt.Library>
libRbt.so (2013.1, Build901 2013/11/27)

>  <Rbt.Parameter_File>
/export/apps/rDock/src/rDock_2013.1_src/data/scripts/dock_solv.prm

>  <Rbt.Receptor>
prm/blind_docking_40.prm

>  <SCORE>
27.2999

>  <SCORE.INTER>
16.1242

>  <SCORE.INTER.CONST>
1

>  <SCORE.INTER.POLAR>
-0.916601

>  <SCORE.INTER.ROT>
10

>  <SCORE.INTER.SOLV>
16.0544

>  <SCORE.INTER.VDW>
-1.81331

>  <SCORE.INTER.norm>
0.537473

>  <SCORE.INTRA>
5.67969

>  <SCORE.INTRA.DIHEDRAL>
0.79394

>  <SCORE.INTRA.DIHEDRAL.0>
18.0451

>  <SCORE.INTRA.POLAR>
-0.144436

>  <SCORE.INTRA.POLAR.0>
-0.196815

>  <SCORE.INTRA.REPUL>
0

>  <SCORE.INTRA.REPUL.0>
0

>  <SCORE.INTRA.SOLV>
0.140489

>  <SCORE.INTRA.SOLV.lig_0>
-14.7906

>  <SCORE.INTRA.VDW>
5.70356

>  <SCORE.INTRA.VDW.0>
-0.411701

>  <SCORE.INTRA.norm>
0.189323

>  <SCORE.RESTR>
5.49601

>  <SCORE.RESTR.CAVITY>
5.49601

>  <SCORE.RESTR.norm>
0.1832

>  <SCORE.SYSTEM>
0

>  <SCORE.SYSTEM.CONST>
0

>  <SCORE.SYSTEM.DIHEDRAL>
0

>  <SCORE.SYSTEM.SOLV>
0

>  <SCORE.SYSTEM.norm>
0

>  <SCORE.heavy>
30

>  <SCORE.norm>
0.909997

>  <RMSD>
25.064

$$$$
