ligand
  PyMOL2.2          3D                             0

 27 29  0  0  0  0  0  0  0  0999 V2000
   49.0670   58.4910   28.9060 N   0  0  0  0  0  0  0  0  0  0  0  0
   48.7870   57.2300   28.2230 C   0  0  0  0  0  0  0  0  0  0  0  0
   47.7060   57.3330   27.1450 C   0  0  0  0  0  0  0  0  0  0  0  0
   47.3730   56.3470   26.5760 O   0  0  0  0  0  0  0  0  0  0  0  0
   48.5880   56.0210   29.1610 C   0  0  0  0  0  0  0  0  0  0  0  0
   49.6420   54.8790   29.1690 C   0  0  0  0  0  0  0  0  0  0  0  0
   49.1670   53.5280   29.7670 C   0  0  0  0  0  0  0  0  0  0  0  0
   48.6130   52.6230   28.7600 N   0  0  0  0  0  0  0  0  0  0  0  0
   48.2270   53.7260   30.9960 C   0  0  0  0  0  0  0  0  0  0  0  0
   48.8130   54.3930   32.2860 C   0  0  0  0  0  0  0  0  0  0  0  0
   49.5660   55.6360   32.1630 O   0  0  0  0  0  0  0  0  0  0  0  0
   47.8210   54.6530   33.4540 C   0  0  0  0  0  0  0  0  0  0  0  0
   47.2560   53.5150   34.1180 O   0  0  0  0  0  0  0  0  0  0  0  0
   48.4790   55.7830   34.3050 C   0  0  0  0  0  0  0  0  0  0  0  0
   48.9790   55.4470   35.5770 O   0  0  0  0  0  0  0  0  0  0  0  0
   49.4130   56.4630   33.2990 C   0  0  0  0  0  0  0  0  0  0  0  0
   46.8200   58.4280   27.1860 O   0  0  0  0  0  0  0  0  0  0  0  0
   45.2870   59.4630   31.4380 N   0  0  0  0  0  0  0  0  0  0  0  0
   45.2990   58.0830   31.6710 C   0  0  0  0  0  0  0  0  0  0  0  0
   46.5080   57.4370   32.1770 N   0  0  0  0  0  0  0  0  0  0  0  0
   47.6310   58.1800   32.4260 C   0  0  0  0  0  0  0  0  0  0  0  0
   47.6110   59.5680   32.1870 C   0  0  0  0  0  0  0  0  0  0  0  0
   46.4060   60.2110   31.6820 C   0  0  0  0  0  0  0  0  0  0  0  0
   46.3830   61.6530   31.4340 N   0  0  0  0  0  0  0  0  0  0  0  0
   48.9090   60.0970   32.5280 N   0  0  0  0  0  0  0  0  0  0  0  0
   49.7110   59.0190   32.9710 C   0  0  0  0  0  0  0  0  0  0  0  0
   48.9370   57.8240   32.9170 N   0  0  0  0  0  0  0  0  0  0  0  0
  1  2  1  0  0  0  0
  2  3  1  0  0  0  0
  2  5  1  0  0  0  0
  3  4  1  0  0  0  0
  3 17  1  0  0  0  0
  5  6  1  0  0  0  0
  6  7  1  0  0  0  0
  7  8  1  0  0  0  0
  7  9  1  0  0  0  0
  9 10  1  0  0  0  0
 10 11  1  0  0  0  0
 10 12  1  0  0  0  0
 11 16  1  0  0  0  0
 12 13  1  0  0  0  0
 12 14  1  0  0  0  0
 14 15  1  0  0  0  0
 14 16  1  0  0  0  0
 16 27  1  0  0  0  0
 18 19  4  0  0  0  0
 19 20  4  0  0  0  0
 20 21  4  0  0  0  0
 21 22  4  0  0  0  0
 22 23  4  0  0  0  0
 18 23  4  0  0  0  0
 23 24  1  0  0  0  0
 22 25  4  0  0  0  0
 25 26  4  0  0  0  0
 21 27  4  0  0  0  0
 26 27  4  0  0  0  0
M  END
$$$$
