ligand
 OpenBabel11021811473D
libRbt.so/2013.1/901 2013/11/27
 27 29  0  0  0  0  0  0  0  0999 V2000
   48.7182   58.2108   29.7482 N   0  0  0  0  0  0  0  0  0  0  0  0
   48.3763   57.1971   28.7529 C   0  0  2  0  0  0  0  0  0  0  0  0
   48.1384   57.7584   27.3495 C   0  0  0  0  0  0  0  0  0  0  0  0
   48.5158   57.1337   26.4145 O   0  0  0  0  0  0  0  0  0  0  0  0
   47.2824   56.2034   29.1969 C   0  0  0  0  0  0  0  0  0  0  0  0
   47.5461   55.2696   30.4108 C   0  0  0  0  0  0  0  0  0  0  0  0
   48.7879   54.3464   30.2934 C   0  0  2  0  0  0  0  0  0  0  0  0
   48.8186   53.5898   29.0418 N   0  0  0  0  0  0  0  0  0  0  0  0
   48.9768   53.4498   31.5559 C   0  0  0  0  0  0  0  0  0  0  0  0
   49.2070   54.1458   32.9397 C   0  0  1  0  0  0  0  0  0  0  0  0
   49.9103   55.4227   32.9839 O   0  0  0  0  0  0  0  0  0  0  0  0
   47.9542   54.3605   33.8342 C   0  0  1  0  0  0  0  0  0  0  0  0
   47.2993   53.1982   34.3589 O   0  0  0  0  0  0  0  0  0  0  0  0
   48.3380   55.5216   34.8030 C   0  0  1  0  0  0  0  0  0  0  0  0
   48.5347   55.2116   36.1617 O   0  0  0  0  0  0  0  0  0  0  0  0
   49.4532   56.2434   34.0400 C   0  0  2  0  0  0  0  0  0  0  0  0
   47.1022   58.6962   27.1689 O   0  0  0  0  0  0  0  0  0  0  0  0
   45.3500   59.2724   32.1758 N   0  0  0  0  0  0  0  0  0  0  0  0
   45.3067   57.9303   32.5702 C   0  0  0  0  0  0  0  0  0  0  0  0
   46.5183   57.2692   33.0497 N   0  0  0  0  0  0  0  0  0  0  0  0
   47.6981   57.9613   33.1160 C   0  0  0  0  0  0  0  0  0  0  0  0
   47.7333   59.3113   32.7154 C   0  0  0  0  0  0  0  0  0  0  0  0
   46.5255   59.9692   32.2369 C   0  0  0  0  0  0  0  0  0  0  0  0
   46.5600   61.3718   31.8212 N   0  0  0  0  0  0  0  0  0  0  0  0
   49.0834   59.7904   32.8841 N   0  0  0  0  0  0  0  0  0  0  0  0
   49.8610   58.7204   33.3860 C   0  0  0  0  0  0  0  0  0  0  0  0
   49.0208   57.5798   33.5382 N   0  0  0  0  0  0  0  0  0  0  0  0
  2  1  1  1  0  0  0
  2  3  1  0  0  0  0
  2  5  1  0  0  0  0
  3  4  1  0  0  0  0
  3 17  1  0  0  0  0
  5  6  1  0  0  0  0
  7  6  1  1  0  0  0
  7  8  1  0  0  0  0
  7  9  1  0  0  0  0
 10  9  1  6  0  0  0
 10 11  1  0  0  0  0
 10 12  1  0  0  0  0
 11 16  1  0  0  0  0
 12 13  1  1  0  0  0
 12 14  1  0  0  0  0
 14 15  1  1  0  0  0
 14 16  1  0  0  0  0
 16 27  1  6  0  0  0
 18 19  2  0  0  0  0
 18 23  1  0  0  0  0
 19 20  1  0  0  0  0
 20 21  2  0  0  0  0
 21 22  1  0  0  0  0
 21 27  1  0  0  0  0
 22 23  2  0  0  0  0
 22 25  1  0  0  0  0
 23 24  1  0  0  0  0
 25 26  2  0  0  0  0
 26 27  1  0  0  0  0
M  END
>  <CHROM.1>
142.12474130,-62.98002910,-57.69884914,-50.93349999,-61.04438310,-31.72895632
91.03718217,48.03469378,56.80251298,31.68664248,2.03095819,1.30266575,-1.55992487

>  <Name>
ligand

>  <RI>
0

>  <Rbt.Current_Directory>
/home/itssahil/PROJECTS/Mol_Feturizer/New_Systems/rnas/3GX2

>  <Rbt.Executable>
rbdock ($Id: //depot/dev/client3/rdock/2013.1/src/exe/rbdock.cxx#4 $)

>  <Rbt.Library>
libRbt.so (2013.1, Build901 2013/11/27)

>  <Rbt.Parameter_File>
/export/apps/rDock/src/rDock_2013.1_src/data/scripts/dock_solv.prm

>  <Rbt.Receptor>
prm/pocket_docking_3.prm

>  <SCORE>
-14.4504

>  <SCORE.INTER>
-10.6334

>  <SCORE.INTER.CONST>
1

>  <SCORE.INTER.POLAR>
0

>  <SCORE.INTER.ROT>
7

>  <SCORE.INTER.SOLV>
19.2758

>  <SCORE.INTER.VDW>
-21.7809

>  <SCORE.INTER.norm>
-0.393829

>  <SCORE.INTRA>
-3.81701

>  <SCORE.INTRA.DIHEDRAL>
-6.11615

>  <SCORE.INTRA.DIHEDRAL.0>
13.9704

>  <SCORE.INTRA.POLAR>
0

>  <SCORE.INTRA.POLAR.0>
0

>  <SCORE.INTRA.REPUL>
0

>  <SCORE.INTRA.REPUL.0>
0

>  <SCORE.INTRA.SOLV>
2.4595

>  <SCORE.INTRA.SOLV.lig_0>
-70.9758

>  <SCORE.INTRA.VDW>
-1.98869

>  <SCORE.INTRA.VDW.0>
-2.70686

>  <SCORE.INTRA.norm>
-0.141371

>  <SCORE.RESTR>
0

>  <SCORE.RESTR.CAVITY>
0

>  <SCORE.RESTR.norm>
0

>  <SCORE.SYSTEM>
0

>  <SCORE.SYSTEM.CONST>
0

>  <SCORE.SYSTEM.DIHEDRAL>
0

>  <SCORE.SYSTEM.SOLV>
0

>  <SCORE.SYSTEM.norm>
0

>  <SCORE.heavy>
27

>  <SCORE.norm>
-0.5352

>  <RMSD>
0.922

$$$$
ligand
 OpenBabel11021811473D
libRbt.so/2013.1/901 2013/11/27
 27 29  0  0  0  0  0  0  0  0999 V2000
   48.6537   58.0176   29.7995 N   0  0  0  0  0  0  0  0  0  0  0  0
   48.0084   57.0665   28.8972 C   0  0  2  0  0  0  0  0  0  0  0  0
   47.5766   57.6723   27.5601 C   0  0  0  0  0  0  0  0  0  0  0  0
   47.7802   58.8243   27.3642 O   0  0  0  0  0  0  0  0  0  0  0  0
   46.9077   56.2051   29.5509 C   0  0  0  0  0  0  0  0  0  0  0  0
   47.2688   55.2869   30.7515 C   0  0  0  0  0  0  0  0  0  0  0  0
   48.4234   54.2794   30.5059 C   0  0  2  0  0  0  0  0  0  0  0  0
   48.2073   53.4424   29.3258 N   0  0  0  0  0  0  0  0  0  0  0  0
   48.7694   53.4568   31.7852 C   0  0  0  0  0  0  0  0  0  0  0  0
   49.2226   54.2282   33.0706 C   0  0  1  0  0  0  0  0  0  0  0  0
   49.9736   55.4700   32.9254 O   0  0  0  0  0  0  0  0  0  0  0  0
   48.1203   54.5600   34.1149 C   0  0  1  0  0  0  0  0  0  0  0  0
   47.5032   53.4667   34.8069 O   0  0  0  0  0  0  0  0  0  0  0  0
   48.6836   55.7611   34.9360 C   0  0  1  0  0  0  0  0  0  0  0  0
   49.0611   55.5298   36.2720 O   0  0  0  0  0  0  0  0  0  0  0  0
   49.7048   56.3778   33.9749 C   0  0  2  0  0  0  0  0  0  0  0  0
   47.4120   56.8123   26.4560 O   0  0  0  0  0  0  0  0  0  0  0  0
   45.5337   59.3709   32.2055 N   0  0  0  0  0  0  0  0  0  0  0  0
   45.5013   58.0445   32.6509 C   0  0  0  0  0  0  0  0  0  0  0  0
   46.7310   57.3913   33.0939 N   0  0  0  0  0  0  0  0  0  0  0  0
   47.9171   58.0755   33.0761 C   0  0  0  0  0  0  0  0  0  0  0  0
   47.9412   59.4095   32.6246 C   0  0  0  0  0  0  0  0  0  0  0  0
   46.7154   60.0596   32.1826 C   0  0  0  0  0  0  0  0  0  0  0  0
   46.7383   61.4457   31.7141 N   0  0  0  0  0  0  0  0  0  0  0  0
   49.3012   59.8832   32.7085 N   0  0  0  0  0  0  0  0  0  0  0  0
   50.0957   58.8257   33.2104 C   0  0  0  0  0  0  0  0  0  0  0  0
   49.2567   57.6985   33.4461 N   0  0  0  0  0  0  0  0  0  0  0  0
  2  1  1  1  0  0  0
  2  3  1  0  0  0  0
  2  5  1  0  0  0  0
  3  4  1  0  0  0  0
  3 17  1  0  0  0  0
  5  6  1  0  0  0  0
  7  6  1  1  0  0  0
  7  8  1  0  0  0  0
  7  9  1  0  0  0  0
 10  9  1  6  0  0  0
 10 11  1  0  0  0  0
 10 12  1  0  0  0  0
 11 16  1  0  0  0  0
 12 13  1  1  0  0  0
 12 14  1  0  0  0  0
 14 15  1  1  0  0  0
 14 16  1  0  0  0  0
 16 27  1  6  0  0  0
 18 19  2  0  0  0  0
 18 23  1  0  0  0  0
 19 20  1  0  0  0  0
 20 21  2  0  0  0  0
 21 22  1  0  0  0  0
 21 27  1  0  0  0  0
 22 23  2  0  0  0  0
 22 25  1  0  0  0  0
 23 24  1  0  0  0  0
 25 26  2  0  0  0  0
 26 27  1  0  0  0  0
M  END
>  <CHROM.1>
-0.47784980,-59.65765983,-55.11357927,-53.93951515,-59.35208760,-32.28768336
85.05692069,48.04715102,56.85865443,31.78223491,2.67608200,1.34642526,-2.20337356

>  <Name>
ligand

>  <RI>
0

>  <Rbt.Current_Directory>
/home/itssahil/PROJECTS/Mol_Feturizer/New_Systems/rnas/3GX2

>  <Rbt.Executable>
rbdock ($Id: //depot/dev/client3/rdock/2013.1/src/exe/rbdock.cxx#4 $)

>  <Rbt.Library>
libRbt.so (2013.1, Build901 2013/11/27)

>  <Rbt.Parameter_File>
/export/apps/rDock/src/rDock_2013.1_src/data/scripts/dock_solv.prm

>  <Rbt.Receptor>
prm/pocket_docking_3.prm

>  <SCORE>
-14.5145

>  <SCORE.INTER>
-10.4707

>  <SCORE.INTER.CONST>
1

>  <SCORE.INTER.POLAR>
0

>  <SCORE.INTER.ROT>
7

>  <SCORE.INTER.SOLV>
19.2489

>  <SCORE.INTER.VDW>
-21.6634

>  <SCORE.INTER.norm>
-0.387804

>  <SCORE.INTRA>
-4.04382

>  <SCORE.INTRA.DIHEDRAL>
-6.46597

>  <SCORE.INTRA.DIHEDRAL.0>
13.9704

>  <SCORE.INTRA.POLAR>
0

>  <SCORE.INTRA.POLAR.0>
0

>  <SCORE.INTRA.REPUL>
0

>  <SCORE.INTRA.REPUL.0>
0

>  <SCORE.INTRA.SOLV>
2.84908

>  <SCORE.INTRA.SOLV.lig_0>
-70.9758

>  <SCORE.INTRA.VDW>
-2.23538

>  <SCORE.INTRA.VDW.0>
-2.70686

>  <SCORE.INTRA.norm>
-0.149771

>  <SCORE.RESTR>
0

>  <SCORE.RESTR.CAVITY>
0

>  <SCORE.RESTR.norm>
0

>  <SCORE.SYSTEM>
0

>  <SCORE.SYSTEM.CONST>
0

>  <SCORE.SYSTEM.DIHEDRAL>
0

>  <SCORE.SYSTEM.SOLV>
0

>  <SCORE.SYSTEM.norm>
0

>  <SCORE.heavy>
27

>  <SCORE.norm>
-0.537575

>  <RMSD>
1.020

$$$$
ligand
 OpenBabel11021811473D
libRbt.so/2013.1/901 2013/11/27
 27 29  0  0  0  0  0  0  0  0999 V2000
   48.5966   55.5204   26.9428 N   0  0  0  0  0  0  0  0  0  0  0  0
   48.1926   56.4083   28.0307 C   0  0  2  0  0  0  0  0  0  0  0  0
   47.5917   57.7346   27.5606 C   0  0  0  0  0  0  0  0  0  0  0  0
   47.3084   57.8577   26.4154 O   0  0  0  0  0  0  0  0  0  0  0  0
   49.2490   56.5864   29.1413 C   0  0  0  0  0  0  0  0  0  0  0  0
   50.4014   55.5520   29.2721 C   0  0  0  0  0  0  0  0  0  0  0  0
   49.9713   54.1074   29.6416 C   0  0  2  0  0  0  0  0  0  0  0  0
   49.5177   53.3350   28.4850 N   0  0  0  0  0  0  0  0  0  0  0  0
   48.9623   54.0793   30.8308 C   0  0  0  0  0  0  0  0  0  0  0  0
   49.3899   54.7292   32.1900 C   0  0  1  0  0  0  0  0  0  0  0  0
   50.0642   56.0224   32.1774 O   0  0  0  0  0  0  0  0  0  0  0  0
   48.2870   54.8759   33.2753 C   0  0  1  0  0  0  0  0  0  0  0  0
   47.7467   53.6772   33.8466 O   0  0  0  0  0  0  0  0  0  0  0  0
   48.7919   56.0102   34.2201 C   0  0  1  0  0  0  0  0  0  0  0  0
   49.2039   55.6551   35.5182 O   0  0  0  0  0  0  0  0  0  0  0  0
   49.7593   56.7902   33.3243 C   0  0  2  0  0  0  0  0  0  0  0  0
   46.9565   58.5577   28.5117 O   0  0  0  0  0  0  0  0  0  0  0  0
   45.3596   59.7542   32.1650 N   0  0  0  0  0  0  0  0  0  0  0  0
   45.4078   58.3947   32.4939 C   0  0  0  0  0  0  0  0  0  0  0  0
   46.6908   57.7557   32.7777 N   0  0  0  0  0  0  0  0  0  0  0  0
   47.8484   58.4854   32.7243 C   0  0  0  0  0  0  0  0  0  0  0  0
   47.7911   59.8527   32.3906 C   0  0  0  0  0  0  0  0  0  0  0  0
   46.5121   60.4886   32.1072 C   0  0  0  0  0  0  0  0  0  0  0  0
   46.4505   61.9092   31.7613 N   0  0  0  0  0  0  0  0  0  0  0  0
   49.1372   60.3712   32.4056 N   0  0  0  0  0  0  0  0  0  0  0  0
   50.0050   59.3075   32.7476 C   0  0  0  0  0  0  0  0  0  0  0  0
   49.2258   58.1321   32.9508 N   0  0  0  0  0  0  0  0  0  0  0  0
  2  1  1  6  0  0  0
  2  3  1  0  0  0  0
  2  5  1  0  0  0  0
  3  4  1  0  0  0  0
  3 17  1  0  0  0  0
  5  6  1  0  0  0  0
  7  6  1  6  0  0  0
  7  8  1  0  0  0  0
  7  9  1  0  0  0  0
 10  9  1  6  0  0  0
 10 11  1  0  0  0  0
 10 12  1  0  0  0  0
 11 16  1  0  0  0  0
 12 13  1  1  0  0  0
 12 14  1  0  0  0  0
 14 15  1  1  0  0  0
 14 16  1  0  0  0  0
 16 27  1  6  0  0  0
 18 19  2  0  0  0  0
 18 23  1  0  0  0  0
 19 20  1  0  0  0  0
 20 21  2  0  0  0  0
 21 22  1  0  0  0  0
 21 27  1  0  0  0  0
 22 23  2  0  0  0  0
 22 25  1  0  0  0  0
 23 24  1  0  0  0  0
 25 26  2  0  0  0  0
 26 27  1  0  0  0  0
M  END
>  <CHROM.1>
11.55579551,-18.31581432,-64.38809987,82.10244244,-57.62536711,43.79648068
89.50552837,48.32186927,57.05393763,31.22484205,0.94985351,1.15482383,-1.70354374

>  <Name>
ligand

>  <RI>
0

>  <Rbt.Current_Directory>
/home/itssahil/PROJECTS/Mol_Feturizer/New_Systems/rnas/3GX2

>  <Rbt.Executable>
rbdock ($Id: //depot/dev/client3/rdock/2013.1/src/exe/rbdock.cxx#4 $)

>  <Rbt.Library>
libRbt.so (2013.1, Build901 2013/11/27)

>  <Rbt.Parameter_File>
/export/apps/rDock/src/rDock_2013.1_src/data/scripts/dock_solv.prm

>  <Rbt.Receptor>
prm/pocket_docking_2.prm

>  <SCORE>
-11.9987

>  <SCORE.INTER>
-12.9309

>  <SCORE.INTER.CONST>
1

>  <SCORE.INTER.POLAR>
0

>  <SCORE.INTER.ROT>
7

>  <SCORE.INTER.SOLV>
18.5412

>  <SCORE.INTER.VDW>
-23.0676

>  <SCORE.INTER.norm>
-0.47892

>  <SCORE.INTRA>
0.888565

>  <SCORE.INTRA.DIHEDRAL>
-2.72006

>  <SCORE.INTRA.DIHEDRAL.0>
13.9704

>  <SCORE.INTRA.POLAR>
0

>  <SCORE.INTRA.POLAR.0>
0

>  <SCORE.INTRA.REPUL>
0

>  <SCORE.INTRA.REPUL.0>
0

>  <SCORE.INTRA.SOLV>
4.04837

>  <SCORE.INTRA.SOLV.lig_0>
-70.9758

>  <SCORE.INTRA.VDW>
0.224411

>  <SCORE.INTRA.VDW.0>
-2.70686

>  <SCORE.INTRA.norm>
0.0329098

>  <SCORE.RESTR>
0.0436282

>  <SCORE.RESTR.CAVITY>
0.0436282

>  <SCORE.RESTR.norm>
0.00161586

>  <SCORE.SYSTEM>
0

>  <SCORE.SYSTEM.CONST>
0

>  <SCORE.SYSTEM.DIHEDRAL>
0

>  <SCORE.SYSTEM.SOLV>
0

>  <SCORE.SYSTEM.norm>
0

>  <SCORE.heavy>
27

>  <SCORE.norm>
-0.444395

>  <RMSD>
1.028

$$$$
ligand
 OpenBabel11021811473D
libRbt.so/2013.1/901 2013/11/27
 27 29  0  0  0  0  0  0  0  0999 V2000
   48.4042   57.5893   29.2593 N   0  0  0  0  0  0  0  0  0  0  0  0
   48.0008   57.1033   27.9417 C   0  0  2  0  0  0  0  0  0  0  0  0
   46.9007   57.9368   27.2811 C   0  0  0  0  0  0  0  0  0  0  0  0
   46.1586   58.5514   27.9727 O   0  0  0  0  0  0  0  0  0  0  0  0
   47.7302   55.5857   27.8713 C   0  0  0  0  0  0  0  0  0  0  0  0
   48.9216   54.5924   27.9651 C   0  0  0  0  0  0  0  0  0  0  0  0
   49.7738   54.6827   29.2590 C   0  0  2  0  0  0  0  0  0  0  0  0
   51.0256   53.9310   29.1699 N   0  0  0  0  0  0  0  0  0  0  0  0
   48.9443   54.3421   30.5354 C   0  0  0  0  0  0  0  0  0  0  0  0
   49.4145   54.9254   31.9106 C   0  0  1  0  0  0  0  0  0  0  0  0
   50.0165   56.2533   31.9499 O   0  0  0  0  0  0  0  0  0  0  0  0
   48.3701   54.9374   33.0616 C   0  0  1  0  0  0  0  0  0  0  0  0
   47.9288   53.6750   33.5781 O   0  0  0  0  0  0  0  0  0  0  0  0
   48.8673   56.0347   34.0530 C   0  0  1  0  0  0  0  0  0  0  0  0
   49.3723   55.6200   35.2995 O   0  0  0  0  0  0  0  0  0  0  0  0
   49.7379   56.9258   33.1615 C   0  0  2  0  0  0  0  0  0  0  0  0
   47.0781   58.3419   25.9432 O   0  0  0  0  0  0  0  0  0  0  0  0
   45.1994   59.6364   31.9196 N   0  0  0  0  0  0  0  0  0  0  0  0
   45.3506   58.2533   32.0710 C   0  0  0  0  0  0  0  0  0  0  0  0
   46.6569   57.6928   32.4091 N   0  0  0  0  0  0  0  0  0  0  0  0
   47.7354   58.5190   32.5804 C   0  0  0  0  0  0  0  0  0  0  0  0
   47.5750   59.9097   32.4244 C   0  0  0  0  0  0  0  0  0  0  0  0
   46.2730   60.4675   32.0866 C   0  0  0  0  0  0  0  0  0  0  0  0
   46.1042   61.9121   31.9251 N   0  0  0  0  0  0  0  0  0  0  0  0
   48.8546   60.5340   32.6563 N   0  0  0  0  0  0  0  0  0  0  0  0
   49.7865   59.5109   32.9502 C   0  0  0  0  0  0  0  0  0  0  0  0
   49.1123   58.2563   32.9100 N   0  0  0  0  0  0  0  0  0  0  0  0
  2  1  1  1  0  0  0
  2  3  1  0  0  0  0
  2  5  1  0  0  0  0
  3  4  1  0  0  0  0
  3 17  1  0  0  0  0
  5  6  1  0  0  0  0
  7  6  1  6  0  0  0
  7  8  1  0  0  0  0
  7  9  1  0  0  0  0
 10  9  1  6  0  0  0
 10 11  1  0  0  0  0
 10 12  1  0  0  0  0
 11 16  1  0  0  0  0
 12 13  1  1  0  0  0
 12 14  1  0  0  0  0
 14 15  1  1  0  0  0
 14 16  1  0  0  0  0
 16 27  1  6  0  0  0
 18 19  2  0  0  0  0
 18 23  1  0  0  0  0
 19 20  1  0  0  0  0
 20 21  2  0  0  0  0
 21 22  1  0  0  0  0
 21 27  1  0  0  0  0
 22 23  2  0  0  0  0
 22 25  1  0  0  0  0
 23 24  1  0  0  0  0
 25 26  2  0  0  0  0
 26 27  1  0  0  0  0
M  END
>  <CHROM.1>
-25.90895918,-70.95935173,58.92833042,-168.05600206,-155.17174231,35.01023589
79.20668850,48.13143879,57.19392594,31.07957073,1.62399678,1.07629168,-1.87191086

>  <Name>
ligand

>  <RI>
0

>  <Rbt.Current_Directory>
/home/itssahil/PROJECTS/Mol_Feturizer/New_Systems/rnas/3GX2

>  <Rbt.Executable>
rbdock ($Id: //depot/dev/client3/rdock/2013.1/src/exe/rbdock.cxx#4 $)

>  <Rbt.Library>
libRbt.so (2013.1, Build901 2013/11/27)

>  <Rbt.Parameter_File>
/export/apps/rDock/src/rDock_2013.1_src/data/scripts/dock_solv.prm

>  <Rbt.Receptor>
prm/pocket_docking_2.prm

>  <SCORE>
-9.94844

>  <SCORE.INTER>
-8.49995

>  <SCORE.INTER.CONST>
1

>  <SCORE.INTER.POLAR>
0

>  <SCORE.INTER.ROT>
7

>  <SCORE.INTER.SOLV>
23.131

>  <SCORE.INTER.VDW>
-21.6436

>  <SCORE.INTER.norm>
-0.314813

>  <SCORE.INTRA>
-1.45816

>  <SCORE.INTRA.DIHEDRAL>
-4.55115

>  <SCORE.INTRA.DIHEDRAL.0>
13.9704

>  <SCORE.INTRA.POLAR>
0

>  <SCORE.INTRA.POLAR.0>
0

>  <SCORE.INTRA.REPUL>
0

>  <SCORE.INTRA.REPUL.0>
0

>  <SCORE.INTRA.SOLV>
3.49781

>  <SCORE.INTRA.SOLV.lig_0>
-70.9758

>  <SCORE.INTRA.VDW>
-0.931488

>  <SCORE.INTRA.VDW.0>
-2.70686

>  <SCORE.INTRA.norm>
-0.054006

>  <SCORE.RESTR>
0.00967507

>  <SCORE.RESTR.CAVITY>
0.00967507

>  <SCORE.RESTR.norm>
0.000358336

>  <SCORE.SYSTEM>
0

>  <SCORE.SYSTEM.CONST>
0

>  <SCORE.SYSTEM.DIHEDRAL>
0

>  <SCORE.SYSTEM.SOLV>
0

>  <SCORE.SYSTEM.norm>
0

>  <SCORE.heavy>
27

>  <SCORE.norm>
-0.368461

>  <RMSD>
1.052

$$$$
ligand
 OpenBabel11021811473D
libRbt.so/2013.1/901 2013/11/27
 27 29  0  0  0  0  0  0  0  0999 V2000
   47.6750   58.4726   28.8554 N   0  0  0  0  0  0  0  0  0  0  0  0
   48.0659   57.4582   27.8791 C   0  0  2  0  0  0  0  0  0  0  0  0
   47.0159   57.1992   26.7966 C   0  0  0  0  0  0  0  0  0  0  0  0
   47.3370   57.2888   25.6583 O   0  0  0  0  0  0  0  0  0  0  0  0
   48.6309   56.1596   28.4921 C   0  0  0  0  0  0  0  0  0  0  0  0
   49.9782   56.2034   29.2654 C   0  0  0  0  0  0  0  0  0  0  0  0
   50.5081   54.8362   29.7736 C   0  0  2  0  0  0  0  0  0  0  0  0
   50.8358   53.9131   28.6871 N   0  0  0  0  0  0  0  0  0  0  0  0
   49.5731   54.2060   30.8515 C   0  0  0  0  0  0  0  0  0  0  0  0
   49.5999   54.7960   32.3019 C   0  0  1  0  0  0  0  0  0  0  0  0
   50.1766   56.1177   32.5201 O   0  0  0  0  0  0  0  0  0  0  0  0
   48.2497   54.8289   33.0711 C   0  0  1  0  0  0  0  0  0  0  0  0
   47.6537   53.5757   33.4309 O   0  0  0  0  0  0  0  0  0  0  0  0
   48.4279   55.9293   34.1626 C   0  0  1  0  0  0  0  0  0  0  0  0
   48.5152   55.5200   35.5064 O   0  0  0  0  0  0  0  0  0  0  0  0
   49.5438   56.8035   33.5817 C   0  0  2  0  0  0  0  0  0  0  0  0
   45.8898   56.4194   27.1273 O   0  0  0  0  0  0  0  0  0  0  0  0
   45.2378   59.7770   32.1311 N   0  0  0  0  0  0  0  0  0  0  0  0
   45.2542   58.4284   32.5052 C   0  0  0  0  0  0  0  0  0  0  0  0
   46.5152   57.7848   32.8668 N   0  0  0  0  0  0  0  0  0  0  0  0
   47.6830   58.4995   32.8422 C   0  0  0  0  0  0  0  0  0  0  0  0
   47.6579   59.8558   32.4628 C   0  0  0  0  0  0  0  0  0  0  0  0
   46.4009   60.4963   32.1019 C   0  0  0  0  0  0  0  0  0  0  0  0
   46.3727   61.9055   31.7083 N   0  0  0  0  0  0  0  0  0  0  0  0
   49.0083   60.3594   32.5219 N   0  0  0  0  0  0  0  0  0  0  0  0
   49.8466   59.2978   32.9365 C   0  0  0  0  0  0  0  0  0  0  0  0
   49.0444   58.1384   33.1417 N   0  0  0  0  0  0  0  0  0  0  0  0
  2  1  1  1  0  0  0
  2  3  1  0  0  0  0
  2  5  1  0  0  0  0
  3  4  1  0  0  0  0
  3 17  1  0  0  0  0
  5  6  1  0  0  0  0
  7  6  1  6  0  0  0
  7  8  1  0  0  0  0
  7  9  1  0  0  0  0
 10  9  1  6  0  0  0
 10 11  1  0  0  0  0
 10 12  1  0  0  0  0
 11 16  1  0  0  0  0
 12 13  1  1  0  0  0
 12 14  1  0  0  0  0
 14 15  1  1  0  0  0
 14 16  1  0  0  0  0
 16 27  1  6  0  0  0
 18 19  2  0  0  0  0
 18 23  1  0  0  0  0
 19 20  1  0  0  0  0
 20 21  2  0  0  0  0
 21 22  1  0  0  0  0
 21 27  1  0  0  0  0
 22 23  2  0  0  0  0
 22 25  1  0  0  0  0
 23 24  1  0  0  0  0
 25 26  2  0  0  0  0
 26 27  1  0  0  0  0
M  END
>  <CHROM.1>
125.55249663,-65.76879650,-176.53507429,64.12787196,-75.54192165,17.44904988
103.23898261,48.17771305,57.12274560,31.18510629,1.57537250,1.06781915,-1.76532373

>  <Name>
ligand

>  <RI>
0

>  <Rbt.Current_Directory>
/home/itssahil/PROJECTS/Mol_Feturizer/New_Systems/rnas/3GX2

>  <Rbt.Executable>
rbdock ($Id: //depot/dev/client3/rdock/2013.1/src/exe/rbdock.cxx#4 $)

>  <Rbt.Library>
libRbt.so (2013.1, Build901 2013/11/27)

>  <Rbt.Parameter_File>
/export/apps/rDock/src/rDock_2013.1_src/data/scripts/dock_solv.prm

>  <Rbt.Receptor>
prm/pocket_docking_2.prm

>  <SCORE>
-13.1909

>  <SCORE.INTER>
-11.1722

>  <SCORE.INTER.CONST>
1

>  <SCORE.INTER.POLAR>
0

>  <SCORE.INTER.ROT>
7

>  <SCORE.INTER.SOLV>
23.6216

>  <SCORE.INTER.VDW>
-23.5887

>  <SCORE.INTER.norm>
-0.413787

>  <SCORE.INTRA>
-2.03219

>  <SCORE.INTRA.DIHEDRAL>
-3.61927

>  <SCORE.INTRA.DIHEDRAL.0>
13.9704

>  <SCORE.INTRA.POLAR>
0

>  <SCORE.INTRA.POLAR.0>
0

>  <SCORE.INTRA.REPUL>
0

>  <SCORE.INTRA.REPUL.0>
0

>  <SCORE.INTRA.SOLV>
-0.0251799

>  <SCORE.INTRA.SOLV.lig_0>
-70.9758

>  <SCORE.INTRA.VDW>
-0.209962

>  <SCORE.INTRA.VDW.0>
-2.70686

>  <SCORE.INTRA.norm>
-0.0752662

>  <SCORE.RESTR>
0.013512

>  <SCORE.RESTR.CAVITY>
0.013512

>  <SCORE.RESTR.norm>
0.000500446

>  <SCORE.SYSTEM>
0

>  <SCORE.SYSTEM.CONST>
0

>  <SCORE.SYSTEM.DIHEDRAL>
0

>  <SCORE.SYSTEM.SOLV>
0

>  <SCORE.SYSTEM.norm>
0

>  <SCORE.heavy>
27

>  <SCORE.norm>
-0.488552

>  <RMSD>
1.060

$$$$
ligand
 OpenBabel11021811473D
libRbt.so/2013.1/901 2013/11/27
 27 29  0  0  0  0  0  0  0  0999 V2000
   49.7818   56.0021   27.8584 N   0  0  0  0  0  0  0  0  0  0  0  0
   48.4392   56.5477   28.0452 C   0  0  2  0  0  0  0  0  0  0  0  0
   48.1665   57.8190   27.2387 C   0  0  0  0  0  0  0  0  0  0  0  0
   47.4405   57.7553   26.3029 O   0  0  0  0  0  0  0  0  0  0  0  0
   47.9904   56.6611   29.5172 C   0  0  0  0  0  0  0  0  0  0  0  0
   47.8515   55.3726   30.3748 C   0  0  0  0  0  0  0  0  0  0  0  0
   48.9871   54.3277   30.2095 C   0  0  2  0  0  0  0  0  0  0  0  0
   48.8989   53.5851   28.9523 N   0  0  0  0  0  0  0  0  0  0  0  0
   49.1232   53.4034   31.4586 C   0  0  0  0  0  0  0  0  0  0  0  0
   49.2969   54.0683   32.8658 C   0  0  1  0  0  0  0  0  0  0  0  0
   50.0074   55.3380   32.9681 O   0  0  0  0  0  0  0  0  0  0  0  0
   48.0071   54.2752   33.7081 C   0  0  1  0  0  0  0  0  0  0  0  0
   47.3206   53.1079   34.1785 O   0  0  0  0  0  0  0  0  0  0  0  0
   48.3564   55.4126   34.7174 C   0  0  1  0  0  0  0  0  0  0  0  0
   48.4900   55.0727   36.0766 O   0  0  0  0  0  0  0  0  0  0  0  0
   49.5100   56.1404   34.0200 C   0  0  2  0  0  0  0  0  0  0  0  0
   48.3621   59.0659   27.8654 O   0  0  0  0  0  0  0  0  0  0  0  0
   45.4843   59.2809   32.1712 N   0  0  0  0  0  0  0  0  0  0  0  0
   45.4082   57.9371   32.5548 C   0  0  0  0  0  0  0  0  0  0  0  0
   46.6027   57.2436   33.0316 N   0  0  0  0  0  0  0  0  0  0  0  0
   47.7984   57.9069   33.1060 C   0  0  0  0  0  0  0  0  0  0  0  0
   47.8667   59.2587   32.7162 C   0  0  0  0  0  0  0  0  0  0  0  0
   46.6760   59.9490   32.2404 C   0  0  0  0  0  0  0  0  0  0  0  0
   46.7448   61.3536   31.8359 N   0  0  0  0  0  0  0  0  0  0  0  0
   49.2274   59.7042   32.8916 N   0  0  0  0  0  0  0  0  0  0  0  0
   49.9782   58.6120   33.3866 C   0  0  0  0  0  0  0  0  0  0  0  0
   49.1107   57.4906   33.5279 N   0  0  0  0  0  0  0  0  0  0  0  0
  2  1  1  1  0  0  0
  2  3  1  0  0  0  0
  2  5  1  0  0  0  0
  3  4  1  0  0  0  0
  3 17  1  0  0  0  0
  5  6  1  0  0  0  0
  7  6  1  1  0  0  0
  7  8  1  0  0  0  0
  7  9  1  0  0  0  0
 10  9  1  6  0  0  0
 10 11  1  0  0  0  0
 10 12  1  0  0  0  0
 11 16  1  0  0  0  0
 12 13  1  1  0  0  0
 12 14  1  0  0  0  0
 14 15  1  1  0  0  0
 14 16  1  0  0  0  0
 16 27  1  6  0  0  0
 18 19  2  0  0  0  0
 18 23  1  0  0  0  0
 19 20  1  0  0  0  0
 20 21  2  0  0  0  0
 21 22  1  0  0  0  0
 21 27  1  0  0  0  0
 22 23  2  0  0  0  0
 22 25  1  0  0  0  0
 23 24  1  0  0  0  0
 25 26  2  0  0  0  0
 26 27  1  0  0  0  0
M  END
>  <CHROM.1>
107.88665413,-62.81422784,42.62924510,-74.84630440,-53.78207276,-32.17743257
93.72427918,48.19415065,56.71784819,31.58870539,-1.80847905,-1.28864712,1.73477877

>  <Name>
ligand

>  <RI>
0

>  <Rbt.Current_Directory>
/home/itssahil/PROJECTS/Mol_Feturizer/New_Systems/rnas/3GX2

>  <Rbt.Executable>
rbdock ($Id: //depot/dev/client3/rdock/2013.1/src/exe/rbdock.cxx#4 $)

>  <Rbt.Library>
libRbt.so (2013.1, Build901 2013/11/27)

>  <Rbt.Parameter_File>
/export/apps/rDock/src/rDock_2013.1_src/data/scripts/dock_solv.prm

>  <Rbt.Receptor>
prm/pocket_docking_2.prm

>  <SCORE>
-11.469

>  <SCORE.INTER>
-10.1771

>  <SCORE.INTER.CONST>
1

>  <SCORE.INTER.POLAR>
0

>  <SCORE.INTER.ROT>
7

>  <SCORE.INTER.SOLV>
19.1865

>  <SCORE.INTER.VDW>
-21.4469

>  <SCORE.INTER.norm>
-0.376931

>  <SCORE.INTRA>
-1.38512

>  <SCORE.INTRA.DIHEDRAL>
-4.60592

>  <SCORE.INTRA.DIHEDRAL.0>
13.9704

>  <SCORE.INTRA.POLAR>
0

>  <SCORE.INTRA.POLAR.0>
0

>  <SCORE.INTRA.REPUL>
0

>  <SCORE.INTRA.REPUL.0>
0

>  <SCORE.INTRA.SOLV>
4.05846

>  <SCORE.INTRA.SOLV.lig_0>
-70.9758

>  <SCORE.INTRA.VDW>
-1.11139

>  <SCORE.INTRA.VDW.0>
-2.70686

>  <SCORE.INTRA.norm>
-0.0513006

>  <SCORE.RESTR>
0.0932294

>  <SCORE.RESTR.CAVITY>
0.0932294

>  <SCORE.RESTR.norm>
0.00345294

>  <SCORE.SYSTEM>
0

>  <SCORE.SYSTEM.CONST>
0

>  <SCORE.SYSTEM.DIHEDRAL>
0

>  <SCORE.SYSTEM.SOLV>
0

>  <SCORE.SYSTEM.norm>
0

>  <SCORE.heavy>
27

>  <SCORE.norm>
-0.424778

>  <RMSD>
1.088

$$$$
ligand
 OpenBabel11021811473D
libRbt.so/2013.1/901 2013/11/27
 27 29  0  0  0  0  0  0  0  0999 V2000
   47.4799   57.9698   29.0820 N   0  0  0  0  0  0  0  0  0  0  0  0
   47.7446   56.9985   28.0230 C   0  0  2  0  0  0  0  0  0  0  0  0
   47.3125   57.4630   26.6306 C   0  0  0  0  0  0  0  0  0  0  0  0
   47.1487   58.6225   26.4421 O   0  0  0  0  0  0  0  0  0  0  0  0
   47.2931   55.5583   28.3439 C   0  0  0  0  0  0  0  0  0  0  0  0
   47.8419   54.8510   29.6142 C   0  0  0  0  0  0  0  0  0  0  0  0
   49.3878   54.7840   29.7333 C   0  0  2  0  0  0  0  0  0  0  0  0
   50.0323   54.2984   28.5131 N   0  0  0  0  0  0  0  0  0  0  0  0
   49.8473   54.0213   31.0140 C   0  0  0  0  0  0  0  0  0  0  0  0
   49.4300   54.5888   32.4126 C   0  0  1  0  0  0  0  0  0  0  0  0
   49.9450   55.8864   32.8346 O   0  0  0  0  0  0  0  0  0  0  0  0
   47.9071   54.6573   32.7161 C   0  0  1  0  0  0  0  0  0  0  0  0
   47.1927   53.4204   32.8379 O   0  0  0  0  0  0  0  0  0  0  0  0
   47.7615   55.7348   33.8349 C   0  0  1  0  0  0  0  0  0  0  0  0
   47.4071   55.3032   35.1268 O   0  0  0  0  0  0  0  0  0  0  0  0
   49.0282   56.5782   33.6584 C   0  0  2  0  0  0  0  0  0  0  0  0
   47.5832   56.6255   25.5301 O   0  0  0  0  0  0  0  0  0  0  0  0
   45.2023   60.0685   32.0251 N   0  0  0  0  0  0  0  0  0  0  0  0
   45.0179   58.7683   32.5091 C   0  0  0  0  0  0  0  0  0  0  0  0
   46.1720   57.9647   32.9057 N   0  0  0  0  0  0  0  0  0  0  0  0
   47.4360   58.4821   32.8064 C   0  0  0  0  0  0  0  0  0  0  0  0
   47.6129   59.7908   32.3165 C   0  0  0  0  0  0  0  0  0  0  0  0
   46.4622   60.5908   31.9208 C   0  0  0  0  0  0  0  0  0  0  0  0
   46.6439   61.9510   31.4125 N   0  0  0  0  0  0  0  0  0  0  0  0
   49.0265   60.0784   32.3156 N   0  0  0  0  0  0  0  0  0  0  0  0
   49.6994   58.9342   32.8051 C   0  0  0  0  0  0  0  0  0  0  0  0
   48.7318   57.9358   33.1164 N   0  0  0  0  0  0  0  0  0  0  0  0
  2  1  1  1  0  0  0
  2  3  1  0  0  0  0
  2  5  1  0  0  0  0
  3  4  1  0  0  0  0
  3 17  1  0  0  0  0
  5  6  1  0  0  0  0
  7  6  1  6  0  0  0
  7  8  1  0  0  0  0
  7  9  1  0  0  0  0
 10  9  1  6  0  0  0
 10 11  1  0  0  0  0
 10 12  1  0  0  0  0
 11 16  1  0  0  0  0
 12 13  1  1  0  0  0
 12 14  1  0  0  0  0
 14 15  1  1  0  0  0
 14 16  1  0  0  0  0
 16 27  1  6  0  0  0
 18 19  2  0  0  0  0
 18 23  1  0  0  0  0
 19 20  1  0  0  0  0
 20 21  2  0  0  0  0
 21 22  1  0  0  0  0
 21 27  1  0  0  0  0
 22 23  2  0  0  0  0
 22 25  1  0  0  0  0
 23 24  1  0  0  0  0
 25 26  2  0  0  0  0
 26 27  1  0  0  0  0
M  END
>  <CHROM.1>
19.57434200,-57.03878825,-55.13173457,-49.03076067,-61.12512844,-64.87124629
124.89078201,47.87182076,57.04206064,31.07955082,1.53956146,1.21720593,-1.65065657

>  <Name>
ligand

>  <RI>
0

>  <Rbt.Current_Directory>
/home/itssahil/PROJECTS/Mol_Feturizer/New_Systems/rnas/3GX2

>  <Rbt.Executable>
rbdock ($Id: //depot/dev/client3/rdock/2013.1/src/exe/rbdock.cxx#4 $)

>  <Rbt.Library>
libRbt.so (2013.1, Build901 2013/11/27)

>  <Rbt.Parameter_File>
/export/apps/rDock/src/rDock_2013.1_src/data/scripts/dock_solv.prm

>  <Rbt.Receptor>
prm/pocket_docking_2.prm

>  <SCORE>
-12.9645

>  <SCORE.INTER>
-9.73855

>  <SCORE.INTER.CONST>
1

>  <SCORE.INTER.POLAR>
0

>  <SCORE.INTER.ROT>
7

>  <SCORE.INTER.SOLV>
20.4019

>  <SCORE.INTER.VDW>
-21.5597

>  <SCORE.INTER.norm>
-0.360687

>  <SCORE.INTRA>
-3.22594

>  <SCORE.INTRA.DIHEDRAL>
-8.47135

>  <SCORE.INTRA.DIHEDRAL.0>
13.9704

>  <SCORE.INTRA.POLAR>
0

>  <SCORE.INTRA.POLAR.0>
0

>  <SCORE.INTRA.REPUL>
0

>  <SCORE.INTRA.REPUL.0>
0

>  <SCORE.INTRA.SOLV>
1.9034

>  <SCORE.INTRA.SOLV.lig_0>
-70.9758

>  <SCORE.INTRA.VDW>
0.0580376

>  <SCORE.INTRA.VDW.0>
-2.70686

>  <SCORE.INTRA.norm>
-0.119479

>  <SCORE.RESTR>
0

>  <SCORE.RESTR.CAVITY>
0

>  <SCORE.RESTR.norm>
0

>  <SCORE.SYSTEM>
0

>  <SCORE.SYSTEM.CONST>
0

>  <SCORE.SYSTEM.DIHEDRAL>
0

>  <SCORE.SYSTEM.SOLV>
0

>  <SCORE.SYSTEM.norm>
0

>  <SCORE.heavy>
27

>  <SCORE.norm>
-0.480166

>  <RMSD>
1.095

$$$$
ligand
 OpenBabel11021811473D
libRbt.so/2013.1/901 2013/11/27
 27 29  0  0  0  0  0  0  0  0999 V2000
   48.7152   58.7869   29.0900 N   0  0  0  0  0  0  0  0  0  0  0  0
   48.4578   57.3835   28.7751 C   0  0  2  0  0  0  0  0  0  0  0  0
   48.6122   57.0402   27.2920 C   0  0  0  0  0  0  0  0  0  0  0  0
   49.1052   56.0029   26.9956 O   0  0  0  0  0  0  0  0  0  0  0  0
   47.1644   56.8124   29.3934 C   0  0  0  0  0  0  0  0  0  0  0  0
   47.2604   55.6863   30.4600 C   0  0  0  0  0  0  0  0  0  0  0  0
   47.8873   54.3516   29.9761 C   0  0  2  0  0  0  0  0  0  0  0  0
   46.9929   53.2070   30.1486 N   0  0  0  0  0  0  0  0  0  0  0  0
   49.3071   54.1156   30.5775 C   0  0  0  0  0  0  0  0  0  0  0  0
   49.6399   54.7376   31.9757 C   0  0  1  0  0  0  0  0  0  0  0  0
   50.2457   56.0629   32.0370 O   0  0  0  0  0  0  0  0  0  0  0  0
   48.4841   54.7897   33.0136 C   0  0  1  0  0  0  0  0  0  0  0  0
   47.9823   53.5457   33.5193 O   0  0  0  0  0  0  0  0  0  0  0  0
   48.8870   55.9137   34.0177 C   0  0  1  0  0  0  0  0  0  0  0  0
   49.2594   55.5341   35.3208 O   0  0  0  0  0  0  0  0  0  0  0  0
   49.8510   56.7731   33.1936 C   0  0  2  0  0  0  0  0  0  0  0  0
   47.7709   57.6846   26.3632 O   0  0  0  0  0  0  0  0  0  0  0  0
   45.3386   59.5794   32.0758 N   0  0  0  0  0  0  0  0  0  0  0  0
   45.4401   58.2178   32.3831 C   0  0  0  0  0  0  0  0  0  0  0  0
   46.7472   57.6255   32.6584 N   0  0  0  0  0  0  0  0  0  0  0  0
   47.8751   58.4010   32.6181 C   0  0  0  0  0  0  0  0  0  0  0  0
   47.7642   59.7701   32.3061 C   0  0  0  0  0  0  0  0  0  0  0  0
   46.4613   60.3596   32.0312 C   0  0  0  0  0  0  0  0  0  0  0  0
   46.3440   61.7820   31.7079 N   0  0  0  0  0  0  0  0  0  0  0  0
   49.0888   60.3409   32.3312 N   0  0  0  0  0  0  0  0  0  0  0  0
   49.9976   59.3069   32.6574 C   0  0  0  0  0  0  0  0  0  0  0  0
   49.2652   58.0986   32.8407 N   0  0  0  0  0  0  0  0  0  0  0  0
  2  1  1  6  0  0  0
  2  3  1  0  0  0  0
  2  5  1  0  0  0  0
  3  4  1  0  0  0  0
  3 17  1  0  0  0  0
  5  6  1  0  0  0  0
  7  6  1  1  0  0  0
  7  8  1  0  0  0  0
  7  9  1  0  0  0  0
 10  9  1  6  0  0  0
 10 11  1  0  0  0  0
 10 12  1  0  0  0  0
 11 16  1  0  0  0  0
 12 13  1  1  0  0  0
 12 14  1  0  0  0  0
 14 15  1  1  0  0  0
 14 16  1  0  0  0  0
 16 27  1  6  0  0  0
 18 19  2  0  0  0  0
 18 23  1  0  0  0  0
 19 20  1  0  0  0  0
 20 21  2  0  0  0  0
 21 22  1  0  0  0  0
 21 27  1  0  0  0  0
 22 23  2  0  0  0  0
 22 25  1  0  0  0  0
 23 24  1  0  0  0  0
 25 26  2  0  0  0  0
 26 27  1  0  0  0  0
M  END
>  <CHROM.1>
141.28881925,-114.82665779,-62.80638756,-122.11986997,28.58393478,-91.81794667
92.32485918,48.16996077,57.03829381,31.28526246,2.55878536,-1.30924734,1.30917218

>  <Name>
ligand

>  <RI>
0

>  <Rbt.Current_Directory>
/home/itssahil/PROJECTS/Mol_Feturizer/New_Systems/rnas/3GX2

>  <Rbt.Executable>
rbdock ($Id: //depot/dev/client3/rdock/2013.1/src/exe/rbdock.cxx#4 $)

>  <Rbt.Library>
libRbt.so (2013.1, Build901 2013/11/27)

>  <Rbt.Parameter_File>
/export/apps/rDock/src/rDock_2013.1_src/data/scripts/dock_solv.prm

>  <Rbt.Receptor>
prm/pocket_docking_2.prm

>  <SCORE>
-4.34543

>  <SCORE.INTER>
-7.80791

>  <SCORE.INTER.CONST>
1

>  <SCORE.INTER.POLAR>
0

>  <SCORE.INTER.ROT>
7

>  <SCORE.INTER.SOLV>
23.2006

>  <SCORE.INTER.VDW>
-21.2055

>  <SCORE.INTER.norm>
-0.289182

>  <SCORE.INTRA>
3.14983

>  <SCORE.INTRA.DIHEDRAL>
7.13986

>  <SCORE.INTRA.DIHEDRAL.0>
13.9704

>  <SCORE.INTRA.POLAR>
0

>  <SCORE.INTRA.POLAR.0>
0

>  <SCORE.INTRA.REPUL>
0

>  <SCORE.INTRA.REPUL.0>
0

>  <SCORE.INTRA.SOLV>
2.38135

>  <SCORE.INTRA.SOLV.lig_0>
-70.9758

>  <SCORE.INTRA.VDW>
-1.61078

>  <SCORE.INTRA.VDW.0>
-2.70686

>  <SCORE.INTRA.norm>
0.11666

>  <SCORE.RESTR>
0.312651

>  <SCORE.RESTR.CAVITY>
0.312651

>  <SCORE.RESTR.norm>
0.0115797

>  <SCORE.SYSTEM>
0

>  <SCORE.SYSTEM.CONST>
0

>  <SCORE.SYSTEM.DIHEDRAL>
0

>  <SCORE.SYSTEM.SOLV>
0

>  <SCORE.SYSTEM.norm>
0

>  <SCORE.heavy>
27

>  <SCORE.norm>
-0.160942

>  <RMSD>
1.099

$$$$
ligand
 OpenBabel11021811473D
libRbt.so/2013.1/901 2013/11/27
 27 29  0  0  0  0  0  0  0  0999 V2000
   47.7991   58.5954   27.3110 N   0  0  0  0  0  0  0  0  0  0  0  0
   47.8893   57.2152   27.7821 C   0  0  2  0  0  0  0  0  0  0  0  0
   47.1029   56.2151   26.9321 C   0  0  0  0  0  0  0  0  0  0  0  0
   45.9306   56.1299   27.0912 O   0  0  0  0  0  0  0  0  0  0  0  0
   47.6517   57.0357   29.2962 C   0  0  0  0  0  0  0  0  0  0  0  0
   47.8062   55.6259   29.9316 C   0  0  0  0  0  0  0  0  0  0  0  0
   49.2069   54.9729   29.7897 C   0  0  2  0  0  0  0  0  0  0  0  0
   49.4153   54.3510   28.4821 N   0  0  0  0  0  0  0  0  0  0  0  0
   49.5359   54.0204   30.9804 C   0  0  0  0  0  0  0  0  0  0  0  0
   49.5645   54.6158   32.4286 C   0  0  1  0  0  0  0  0  0  0  0  0
   50.1792   55.9201   32.6479 O   0  0  0  0  0  0  0  0  0  0  0  0
   48.2073   54.6936   33.1821 C   0  0  1  0  0  0  0  0  0  0  0  0
   47.5690   53.4609   33.5402 O   0  0  0  0  0  0  0  0  0  0  0  0
   48.4070   55.7929   34.2710 C   0  0  1  0  0  0  0  0  0  0  0  0
   48.4664   55.3871   35.6174 O   0  0  0  0  0  0  0  0  0  0  0  0
   49.5558   56.6297   33.6993 C   0  0  2  0  0  0  0  0  0  0  0  0
   47.6561   55.7964   25.7055 O   0  0  0  0  0  0  0  0  0  0  0  0
   45.3843   59.6896   32.0493 N   0  0  0  0  0  0  0  0  0  0  0  0
   45.3585   58.3370   32.4079 C   0  0  0  0  0  0  0  0  0  0  0  0
   46.5872   57.6687   32.8307 N   0  0  0  0  0  0  0  0  0  0  0  0
   47.7658   58.3642   32.8786 C   0  0  0  0  0  0  0  0  0  0  0  0
   47.7833   59.7247   32.5142 C   0  0  0  0  0  0  0  0  0  0  0  0
   46.5586   60.3899   32.0923 C   0  0  0  0  0  0  0  0  0  0  0  0
   46.5746   61.8034   31.7142 N   0  0  0  0  0  0  0  0  0  0  0  0
   49.1364   60.2052   32.6532 N   0  0  0  0  0  0  0  0  0  0  0  0
   49.9334   59.1255   33.1008 C   0  0  0  0  0  0  0  0  0  0  0  0
   49.1027   57.9773   33.2482 N   0  0  0  0  0  0  0  0  0  0  0  0
  2  1  1  6  0  0  0
  2  3  1  0  0  0  0
  2  5  1  0  0  0  0
  3  4  1  0  0  0  0
  3 17  1  0  0  0  0
  5  6  1  0  0  0  0
  7  6  1  1  0  0  0
  7  8  1  0  0  0  0
  7  9  1  0  0  0  0
 10  9  1  6  0  0  0
 10 11  1  0  0  0  0
 10 12  1  0  0  0  0
 11 16  1  0  0  0  0
 12 13  1  1  0  0  0
 12 14  1  0  0  0  0
 14 15  1  1  0  0  0
 14 16  1  0  0  0  0
 16 27  1  6  0  0  0
 18 19  2  0  0  0  0
 18 23  1  0  0  0  0
 19 20  1  0  0  0  0
 20 21  2  0  0  0  0
 21 22  1  0  0  0  0
 21 27  1  0  0  0  0
 22 23  2  0  0  0  0
 22 25  1  0  0  0  0
 23 24  1  0  0  0  0
 25 26  2  0  0  0  0
 26 27  1  0  0  0  0
M  END
>  <CHROM.1>
-79.55614515,-176.31779375,59.93714700,-80.66462644,-59.87214874,-41.49733449
100.45715886,48.00732320,56.94801300,31.22262856,1.88047238,1.19845878,-2.03603047

>  <Name>
ligand

>  <RI>
0

>  <Rbt.Current_Directory>
/home/itssahil/PROJECTS/Mol_Feturizer/New_Systems/rnas/3GX2

>  <Rbt.Executable>
rbdock ($Id: //depot/dev/client3/rdock/2013.1/src/exe/rbdock.cxx#4 $)

>  <Rbt.Library>
libRbt.so (2013.1, Build901 2013/11/27)

>  <Rbt.Parameter_File>
/export/apps/rDock/src/rDock_2013.1_src/data/scripts/dock_solv.prm

>  <Rbt.Receptor>
prm/pocket_docking_2.prm

>  <SCORE>
-11.9952

>  <SCORE.INTER>
-8.74133

>  <SCORE.INTER.CONST>
1

>  <SCORE.INTER.POLAR>
0

>  <SCORE.INTER.ROT>
7

>  <SCORE.INTER.SOLV>
22.2813

>  <SCORE.INTER.VDW>
-21.5213

>  <SCORE.INTER.norm>
-0.323753

>  <SCORE.INTRA>
-3.25388

>  <SCORE.INTRA.DIHEDRAL>
-6.39986

>  <SCORE.INTRA.DIHEDRAL.0>
13.9704

>  <SCORE.INTRA.POLAR>
0

>  <SCORE.INTRA.POLAR.0>
0

>  <SCORE.INTRA.REPUL>
0

>  <SCORE.INTRA.REPUL.0>
0

>  <SCORE.INTRA.SOLV>
2.21048

>  <SCORE.INTRA.SOLV.lig_0>
-70.9758

>  <SCORE.INTRA.VDW>
-1.15919

>  <SCORE.INTRA.VDW.0>
-2.70686

>  <SCORE.INTRA.norm>
-0.120514

>  <SCORE.RESTR>
0

>  <SCORE.RESTR.CAVITY>
0

>  <SCORE.RESTR.norm>
0

>  <SCORE.SYSTEM>
0

>  <SCORE.SYSTEM.CONST>
0

>  <SCORE.SYSTEM.DIHEDRAL>
0

>  <SCORE.SYSTEM.SOLV>
0

>  <SCORE.SYSTEM.norm>
0

>  <SCORE.heavy>
27

>  <SCORE.norm>
-0.444267

>  <RMSD>
1.108

$$$$
ligand
 OpenBabel11021811473D
libRbt.so/2013.1/901 2013/11/27
 27 29  0  0  0  0  0  0  0  0999 V2000
   47.2655   55.6327   28.2755 N   0  0  0  0  0  0  0  0  0  0  0  0
   48.3215   56.6201   28.4869 C   0  0  2  0  0  0  0  0  0  0  0  0
   47.9916   58.0107   27.9403 C   0  0  0  0  0  0  0  0  0  0  0  0
   48.6597   58.9298   28.2803 O   0  0  0  0  0  0  0  0  0  0  0  0
   49.7364   56.1415   28.0994 C   0  0  0  0  0  0  0  0  0  0  0  0
   50.5905   55.3629   29.1383 C   0  0  0  0  0  0  0  0  0  0  0  0
   50.0458   53.9690   29.5492 C   0  0  2  0  0  0  0  0  0  0  0  0
   49.5714   53.1844   28.4093 N   0  0  0  0  0  0  0  0  0  0  0  0
   49.0028   54.0617   30.7055 C   0  0  0  0  0  0  0  0  0  0  0  0
   49.4437   54.7123   32.0600 C   0  0  1  0  0  0  0  0  0  0  0  0
   50.1013   56.0140   32.0415 O   0  0  0  0  0  0  0  0  0  0  0  0
   48.3564   54.8412   33.1632 C   0  0  1  0  0  0  0  0  0  0  0  0
   47.8404   53.6338   33.7386 O   0  0  0  0  0  0  0  0  0  0  0  0
   48.8619   55.9785   34.1040 C   0  0  1  0  0  0  0  0  0  0  0  0
   49.2990   55.6242   35.3941 O   0  0  0  0  0  0  0  0  0  0  0  0
   49.8050   56.7739   33.1959 C   0  0  2  0  0  0  0  0  0  0  0  0
   47.2689   58.1032   26.7342 O   0  0  0  0  0  0  0  0  0  0  0  0
   45.3448   59.7021   32.1865 N   0  0  0  0  0  0  0  0  0  0  0  0
   45.4146   58.3447   32.5202 C   0  0  0  0  0  0  0  0  0  0  0  0
   46.7117   57.7159   32.7591 N   0  0  0  0  0  0  0  0  0  0  0  0
   47.8614   58.4530   32.6590 C   0  0  0  0  0  0  0  0  0  0  0  0
   47.7823   59.8181   32.3208 C   0  0  0  0  0  0  0  0  0  0  0  0
   46.4893   60.4440   32.0821 C   0  0  0  0  0  0  0  0  0  0  0  0
   46.4051   61.8622   31.7316 N   0  0  0  0  0  0  0  0  0  0  0  0
   49.1244   60.3457   32.2831 N   0  0  0  0  0  0  0  0  0  0  0  0
   50.0117   59.2896   32.5979 C   0  0  0  0  0  0  0  0  0  0  0  0
   49.2487   58.1101   32.8357 N   0  0  0  0  0  0  0  0  0  0  0  0
  2  1  1  6  0  0  0
  2  3  1  0  0  0  0
  2  5  1  0  0  0  0
  3  4  1  0  0  0  0
  3 17  1  0  0  0  0
  5  6  1  0  0  0  0
  7  6  1  6  0  0  0
  7  8  1  0  0  0  0
  7  9  1  0  0  0  0
 10  9  1  6  0  0  0
 10 11  1  0  0  0  0
 10 12  1  0  0  0  0
 11 16  1  0  0  0  0
 12 13  1  1  0  0  0
 12 14  1  0  0  0  0
 14 15  1  1  0  0  0
 14 16  1  0  0  0  0
 16 27  1  6  0  0  0
 18 19  2  0  0  0  0
 18 23  1  0  0  0  0
 19 20  1  0  0  0  0
 20 21  2  0  0  0  0
 21 22  1  0  0  0  0
 21 27  1  0  0  0  0
 22 23  2  0  0  0  0
 22 25  1  0  0  0  0
 23 24  1  0  0  0  0
 25 26  2  0  0  0  0
 26 27  1  0  0  0  0
M  END
>  <CHROM.1>
165.85100919,-86.42107278,65.68474778,43.75522383,-58.65651854,50.30455045
90.86921474,48.41044252,57.04683493,31.20088153,0.44335558,1.17863137,-1.55006387

>  <Name>
ligand

>  <RI>
0

>  <Rbt.Current_Directory>
/home/itssahil/PROJECTS/Mol_Feturizer/New_Systems/rnas/3GX2

>  <Rbt.Executable>
rbdock ($Id: //depot/dev/client3/rdock/2013.1/src/exe/rbdock.cxx#4 $)

>  <Rbt.Library>
libRbt.so (2013.1, Build901 2013/11/27)

>  <Rbt.Parameter_File>
/export/apps/rDock/src/rDock_2013.1_src/data/scripts/dock_solv.prm

>  <Rbt.Receptor>
prm/pocket_docking_2.prm

>  <SCORE>
-15.1432

>  <SCORE.INTER>
-13.5419

>  <SCORE.INTER.CONST>
1

>  <SCORE.INTER.POLAR>
0

>  <SCORE.INTER.ROT>
7

>  <SCORE.INTER.SOLV>
19.2152

>  <SCORE.INTER.VDW>
-23.6996

>  <SCORE.INTER.norm>
-0.501552

>  <SCORE.INTRA>
-1.60131

>  <SCORE.INTRA.DIHEDRAL>
-5.69318

>  <SCORE.INTRA.DIHEDRAL.0>
13.9704

>  <SCORE.INTRA.POLAR>
0

>  <SCORE.INTRA.POLAR.0>
0

>  <SCORE.INTRA.REPUL>
0

>  <SCORE.INTRA.REPUL.0>
0

>  <SCORE.INTRA.SOLV>
3.71121

>  <SCORE.INTRA.SOLV.lig_0>
-70.9758

>  <SCORE.INTRA.VDW>
-0.610322

>  <SCORE.INTRA.VDW.0>
-2.70686

>  <SCORE.INTRA.norm>
-0.0593077

>  <SCORE.RESTR>
0

>  <SCORE.RESTR.CAVITY>
0

>  <SCORE.RESTR.norm>
0

>  <SCORE.SYSTEM>
0

>  <SCORE.SYSTEM.CONST>
0

>  <SCORE.SYSTEM.DIHEDRAL>
0

>  <SCORE.SYSTEM.SOLV>
0

>  <SCORE.SYSTEM.norm>
0

>  <SCORE.heavy>
27

>  <SCORE.norm>
-0.560859

>  <RMSD>
1.124

$$$$
ligand
 OpenBabel11021811473D
libRbt.so/2013.1/901 2013/11/27
 27 29  0  0  0  0  0  0  0  0999 V2000
   47.4042   58.6531   28.9802 N   0  0  0  0  0  0  0  0  0  0  0  0
   47.7976   57.8268   27.8411 C   0  0  2  0  0  0  0  0  0  0  0  0
   46.6908   56.9008   27.3325 C   0  0  0  0  0  0  0  0  0  0  0  0
   46.9969   55.8895   26.7936 O   0  0  0  0  0  0  0  0  0  0  0  0
   49.1541   57.1096   28.0050 C   0  0  0  0  0  0  0  0  0  0  0  0
   49.4749   56.3777   29.3379 C   0  0  0  0  0  0  0  0  0  0  0  0
   48.6678   55.0793   29.6047 C   0  0  2  0  0  0  0  0  0  0  0  0
   47.2500   55.3327   29.8609 N   0  0  0  0  0  0  0  0  0  0  0  0
   49.3363   54.1834   30.6926 C   0  0  0  0  0  0  0  0  0  0  0  0
   49.5178   54.7673   32.1343 C   0  0  1  0  0  0  0  0  0  0  0  0
   50.1340   56.0793   32.2964 O   0  0  0  0  0  0  0  0  0  0  0  0
   48.2523   54.8179   33.0353 C   0  0  1  0  0  0  0  0  0  0  0  0
   47.6760   53.5725   33.4502 O   0  0  0  0  0  0  0  0  0  0  0  0
   48.5563   55.9112   34.1059 C   0  0  1  0  0  0  0  0  0  0  0  0
   48.7717   55.4954   35.4331 O   0  0  0  0  0  0  0  0  0  0  0  0
   49.6217   56.7705   33.4178 C   0  0  2  0  0  0  0  0  0  0  0  0
   45.4112   57.0027   27.9138 O   0  0  0  0  0  0  0  0  0  0  0  0
   45.2670   59.7382   32.1075 N   0  0  0  0  0  0  0  0  0  0  0  0
   45.3041   58.3763   32.4281 C   0  0  0  0  0  0  0  0  0  0  0  0
   46.5759   57.7367   32.7576 N   0  0  0  0  0  0  0  0  0  0  0  0
   47.7336   58.4681   32.7553 C   0  0  0  0  0  0  0  0  0  0  0  0
   47.6876   59.8377   32.4296 C   0  0  0  0  0  0  0  0  0  0  0  0
   46.4200   60.4743   32.1006 C   0  0  0  0  0  0  0  0  0  0  0  0
   46.3701   61.8973   31.7630 N   0  0  0  0  0  0  0  0  0  0  0  0
   49.0313   60.3575   32.5016 N   0  0  0  0  0  0  0  0  0  0  0  0
   49.8864   59.2922   32.8698 C   0  0  0  0  0  0  0  0  0  0  0  0
   49.1014   58.1145   33.0333 N   0  0  0  0  0  0  0  0  0  0  0  0
  2  1  1  1  0  0  0
  2  3  1  0  0  0  0
  2  5  1  0  0  0  0
  3  4  1  0  0  0  0
  3 17  1  0  0  0  0
  5  6  1  0  0  0  0
  7  6  1  1  0  0  0
  7  8  1  0  0  0  0
  7  9  1  0  0  0  0
 10  9  1  6  0  0  0
 10 11  1  0  0  0  0
 10 12  1  0  0  0  0
 11 16  1  0  0  0  0
 12 13  1  1  0  0  0
 12 14  1  0  0  0  0
 14 15  1  1  0  0  0
 14 16  1  0  0  0  0
 16 27  1  6  0  0  0
 18 19  2  0  0  0  0
 18 23  1  0  0  0  0
 19 20  1  0  0  0  0
 20 21  2  0  0  0  0
 21 22  1  0  0  0  0
 21 27  1  0  0  0  0
 22 23  2  0  0  0  0
 22 25  1  0  0  0  0
 23 24  1  0  0  0  0
 25 26  2  0  0  0  0
 26 27  1  0  0  0  0
M  END
>  <CHROM.1>
-152.46732172,45.84788495,70.38632130,-68.78193482,61.01146393,-50.28003886
97.16435717,47.93048627,57.18576766,31.26357185,2.21462898,1.15244854,-2.12619624

>  <Name>
ligand

>  <RI>
0

>  <Rbt.Current_Directory>
/home/itssahil/PROJECTS/Mol_Feturizer/New_Systems/rnas/3GX2

>  <Rbt.Executable>
rbdock ($Id: //depot/dev/client3/rdock/2013.1/src/exe/rbdock.cxx#4 $)

>  <Rbt.Library>
libRbt.so (2013.1, Build901 2013/11/27)

>  <Rbt.Parameter_File>
/export/apps/rDock/src/rDock_2013.1_src/data/scripts/dock_solv.prm

>  <Rbt.Receptor>
prm/pocket_docking_3.prm

>  <SCORE>
-12.8356

>  <SCORE.INTER>
-11.7421

>  <SCORE.INTER.CONST>
1

>  <SCORE.INTER.POLAR>
0

>  <SCORE.INTER.ROT>
7

>  <SCORE.INTER.SOLV>
19.1854

>  <SCORE.INTER.VDW>
-22.4899

>  <SCORE.INTER.norm>
-0.434893

>  <SCORE.INTRA>
-1.0935

>  <SCORE.INTRA.DIHEDRAL>
-7.71623

>  <SCORE.INTRA.DIHEDRAL.0>
13.9704

>  <SCORE.INTRA.POLAR>
0

>  <SCORE.INTRA.POLAR.0>
0

>  <SCORE.INTRA.REPUL>
0

>  <SCORE.INTRA.REPUL.0>
0

>  <SCORE.INTRA.SOLV>
7.88567

>  <SCORE.INTRA.SOLV.lig_0>
-70.9758

>  <SCORE.INTRA.VDW>
-1.17822

>  <SCORE.INTRA.VDW.0>
-2.70686

>  <SCORE.INTRA.norm>
-0.0404999

>  <SCORE.RESTR>
0

>  <SCORE.RESTR.CAVITY>
0

>  <SCORE.RESTR.norm>
0

>  <SCORE.SYSTEM>
0

>  <SCORE.SYSTEM.CONST>
0

>  <SCORE.SYSTEM.DIHEDRAL>
0

>  <SCORE.SYSTEM.SOLV>
0

>  <SCORE.SYSTEM.norm>
0

>  <SCORE.heavy>
27

>  <SCORE.norm>
-0.475393

>  <RMSD>
1.145

$$$$
ligand
 OpenBabel11021811473D
libRbt.so/2013.1/901 2013/11/27
 27 29  0  0  0  0  0  0  0  0999 V2000
   50.6406   55.9727   27.7685 N   0  0  0  0  0  0  0  0  0  0  0  0
   49.2132   56.1718   28.0090 C   0  0  2  0  0  0  0  0  0  0  0  0
   48.7748   57.6374   27.9730 C   0  0  0  0  0  0  0  0  0  0  0  0
   48.0784   58.0020   27.0848 O   0  0  0  0  0  0  0  0  0  0  0  0
   48.6532   55.4061   29.2260 C   0  0  0  0  0  0  0  0  0  0  0  0
   49.5294   54.3243   29.9169 C   0  0  0  0  0  0  0  0  0  0  0  0
   48.7973   53.0129   30.3074 C   0  0  2  0  0  0  0  0  0  0  0  0
   48.1474   52.3630   29.1693 N   0  0  0  0  0  0  0  0  0  0  0  0
   47.8438   53.2112   31.5259 C   0  0  0  0  0  0  0  0  0  0  0  0
   48.4156   53.8780   32.8223 C   0  0  1  0  0  0  0  0  0  0  0  0
   49.2648   55.0574   32.6986 O   0  0  0  0  0  0  0  0  0  0  0  0
   47.3910   54.2508   33.9301 C   0  0  1  0  0  0  0  0  0  0  0  0
   46.7111   53.1813   34.6001 O   0  0  0  0  0  0  0  0  0  0  0  0
   48.0904   55.3585   34.7774 C   0  0  1  0  0  0  0  0  0  0  0  0
   48.5022   55.0314   36.0829 O   0  0  0  0  0  0  0  0  0  0  0  0
   49.1200   55.9326   33.7990 C   0  0  2  0  0  0  0  0  0  0  0  0
   48.7832   58.3698   29.1768 O   0  0  0  0  0  0  0  0  0  0  0  0
   45.1750   59.3045   32.2009 N   0  0  0  0  0  0  0  0  0  0  0  0
   45.0496   57.9585   32.5632 C   0  0  0  0  0  0  0  0  0  0  0  0
   46.2287   57.1975   32.9700 N   0  0  0  0  0  0  0  0  0  0  0  0
   47.4583   57.7995   32.9996 C   0  0  0  0  0  0  0  0  0  0  0  0
   47.5760   59.1541   32.6317 C   0  0  0  0  0  0  0  0  0  0  0  0
   46.4005   59.9116   32.2256 C   0  0  0  0  0  0  0  0  0  0  0  0
   46.5206   61.3192   31.8439 N   0  0  0  0  0  0  0  0  0  0  0  0
   48.9640   59.5284   32.7503 N   0  0  0  0  0  0  0  0  0  0  0  0
   49.6813   58.3907   33.1892 C   0  0  0  0  0  0  0  0  0  0  0  0
   48.7663   57.3106   33.3511 N   0  0  0  0  0  0  0  0  0  0  0  0
  2  1  1  1  0  0  0
  2  3  1  0  0  0  0
  2  5  1  0  0  0  0
  3  4  1  0  0  0  0
  3 17  1  0  0  0  0
  5  6  1  0  0  0  0
  7  6  1  6  0  0  0
  7  8  1  0  0  0  0
  7  9  1  0  0  0  0
 10  9  1  6  0  0  0
 10 11  1  0  0  0  0
 10 12  1  0  0  0  0
 11 16  1  0  0  0  0
 12 13  1  1  0  0  0
 12 14  1  0  0  0  0
 14 15  1  1  0  0  0
 14 16  1  0  0  0  0
 16 27  1  6  0  0  0
 18 19  2  0  0  0  0
 18 23  1  0  0  0  0
 19 20  1  0  0  0  0
 20 21  2  0  0  0  0
 21 22  1  0  0  0  0
 21 27  1  0  0  0  0
 22 23  2  0  0  0  0
 22 25  1  0  0  0  0
 23 24  1  0  0  0  0
 25 26  2  0  0  0  0
 26 27  1  0  0  0  0
M  END
>  <CHROM.1>
111.74369235,-10.96163392,-137.20516537,56.66603426,-51.71185948,44.02920635
81.87311939,48.08481271,56.43383198,31.66762443,-0.96277125,-1.24594875,2.39303167

>  <Name>
ligand

>  <RI>
0

>  <Rbt.Current_Directory>
/home/itssahil/PROJECTS/Mol_Feturizer/New_Systems/rnas/3GX2

>  <Rbt.Executable>
rbdock ($Id: //depot/dev/client3/rdock/2013.1/src/exe/rbdock.cxx#4 $)

>  <Rbt.Library>
libRbt.so (2013.1, Build901 2013/11/27)

>  <Rbt.Parameter_File>
/export/apps/rDock/src/rDock_2013.1_src/data/scripts/dock_solv.prm

>  <Rbt.Receptor>
prm/pocket_docking_2.prm

>  <SCORE>
-8.69392

>  <SCORE.INTER>
-10.1829

>  <SCORE.INTER.CONST>
1

>  <SCORE.INTER.POLAR>
0

>  <SCORE.INTER.ROT>
7

>  <SCORE.INTER.SOLV>
21.0113

>  <SCORE.INTER.VDW>
-22.059

>  <SCORE.INTER.norm>
-0.377143

>  <SCORE.INTRA>
1.24741

>  <SCORE.INTRA.DIHEDRAL>
1.3628

>  <SCORE.INTRA.DIHEDRAL.0>
13.9704

>  <SCORE.INTRA.POLAR>
0

>  <SCORE.INTRA.POLAR.0>
0

>  <SCORE.INTRA.REPUL>
0

>  <SCORE.INTRA.REPUL.0>
0

>  <SCORE.INTRA.SOLV>
0.828824

>  <SCORE.INTRA.SOLV.lig_0>
-70.9758

>  <SCORE.INTRA.VDW>
0.151596

>  <SCORE.INTRA.VDW.0>
-2.70686

>  <SCORE.INTRA.norm>
0.0462003

>  <SCORE.RESTR>
0.241547

>  <SCORE.RESTR.CAVITY>
0.241547

>  <SCORE.RESTR.norm>
0.00894617

>  <SCORE.SYSTEM>
0

>  <SCORE.SYSTEM.CONST>
0

>  <SCORE.SYSTEM.DIHEDRAL>
0

>  <SCORE.SYSTEM.SOLV>
0

>  <SCORE.SYSTEM.norm>
0

>  <SCORE.heavy>
27

>  <SCORE.norm>
-0.321997

>  <RMSD>
1.177

$$$$
ligand
 OpenBabel11021811473D
libRbt.so/2013.1/901 2013/11/27
 27 29  0  0  0  0  0  0  0  0999 V2000
   47.4403   58.0911   29.0230 N   0  0  0  0  0  0  0  0  0  0  0  0
   48.5453   57.6361   28.1821 C   0  0  2  0  0  0  0  0  0  0  0  0
   48.1111   57.1264   26.8062 C   0  0  0  0  0  0  0  0  0  0  0  0
   48.2456   55.9746   26.5569 O   0  0  0  0  0  0  0  0  0  0  0  0
   49.5427   56.6924   28.8860 C   0  0  0  0  0  0  0  0  0  0  0  0
   49.0042   55.4996   29.7241 C   0  0  0  0  0  0  0  0  0  0  0  0
   50.0805   54.5472   30.3095 C   0  0  2  0  0  0  0  0  0  0  0  0
   50.8721   53.8791   29.2766 N   0  0  0  0  0  0  0  0  0  0  0  0
   49.4845   53.5592   31.3592 C   0  0  0  0  0  0  0  0  0  0  0  0
   48.9350   54.1403   32.7056 C   0  0  1  0  0  0  0  0  0  0  0  0
   49.5059   55.3752   33.2312 O   0  0  0  0  0  0  0  0  0  0  0  0
   47.3980   54.3493   32.8043 C   0  0  1  0  0  0  0  0  0  0  0  0
   46.5621   53.1847   32.7923 O   0  0  0  0  0  0  0  0  0  0  0  0
   47.2020   55.4167   33.9251 C   0  0  1  0  0  0  0  0  0  0  0  0
   46.6364   54.9991   35.1444 O   0  0  0  0  0  0  0  0  0  0  0  0
   48.5535   56.1376   33.9450 C   0  0  2  0  0  0  0  0  0  0  0  0
   47.1588   57.8730   26.0842 O   0  0  0  0  0  0  0  0  0  0  0  0
   45.3173   60.0247   31.9690 N   0  0  0  0  0  0  0  0  0  0  0  0
   44.9477   58.7430   32.3927 C   0  0  0  0  0  0  0  0  0  0  0  0
   45.9603   57.8198   32.9000 N   0  0  0  0  0  0  0  0  0  0  0  0
   47.2723   58.2068   32.9638 C   0  0  0  0  0  0  0  0  0  0  0  0
   47.6361   59.4978   32.5337 C   0  0  0  0  0  0  0  0  0  0  0  0
   46.6265   60.4170   32.0274 C   0  0  0  0  0  0  0  0  0  0  0  0
   47.0023   61.7590   31.5809 N   0  0  0  0  0  0  0  0  0  0  0  0
   49.0612   59.6394   32.7064 N   0  0  0  0  0  0  0  0  0  0  0  0
   49.5534   58.4253   33.2405 C   0  0  0  0  0  0  0  0  0  0  0  0
   48.4608   57.5264   33.4089 N   0  0  0  0  0  0  0  0  0  0  0  0
  2  1  1  1  0  0  0
  2  3  1  0  0  0  0
  2  5  1  0  0  0  0
  3  4  1  0  0  0  0
  3 17  1  0  0  0  0
  5  6  1  0  0  0  0
  7  6  1  6  0  0  0
  7  8  1  0  0  0  0
  7  9  1  0  0  0  0
 10  9  1  6  0  0  0
 10 11  1  0  0  0  0
 10 12  1  0  0  0  0
 11 16  1  0  0  0  0
 12 13  1  1  0  0  0
 12 14  1  0  0  0  0
 14 15  1  1  0  0  0
 14 16  1  0  0  0  0
 16 27  1  6  0  0  0
 18 19  2  0  0  0  0
 18 23  1  0  0  0  0
 19 20  1  0  0  0  0
 20 21  2  0  0  0  0
 21 22  1  0  0  0  0
 21 27  1  0  0  0  0
 22 23  2  0  0  0  0
 22 25  1  0  0  0  0
 23 24  1  0  0  0  0
 25 26  2  0  0  0  0
 26 27  1  0  0  0  0
M  END
>  <CHROM.1>
-113.05626981,47.17343663,175.76423072,-62.22102604,-66.29663870,-28.29663294
125.93173619,47.97051314,56.83654282,31.30269363,1.01248638,1.17409326,-1.11819926

>  <Name>
ligand

>  <RI>
0

>  <Rbt.Current_Directory>
/home/itssahil/PROJECTS/Mol_Feturizer/New_Systems/rnas/3GX2

>  <Rbt.Executable>
rbdock ($Id: //depot/dev/client3/rdock/2013.1/src/exe/rbdock.cxx#4 $)

>  <Rbt.Library>
libRbt.so (2013.1, Build901 2013/11/27)

>  <Rbt.Parameter_File>
/export/apps/rDock/src/rDock_2013.1_src/data/scripts/dock_solv.prm

>  <Rbt.Receptor>
prm/pocket_docking_4.prm

>  <SCORE>
-12.9661

>  <SCORE.INTER>
-10.7112

>  <SCORE.INTER.CONST>
1

>  <SCORE.INTER.POLAR>
0

>  <SCORE.INTER.ROT>
7

>  <SCORE.INTER.SOLV>
22.6946

>  <SCORE.INTER.VDW>
-22.9724

>  <SCORE.INTER.norm>
-0.396713

>  <SCORE.INTRA>
-2.25483

>  <SCORE.INTRA.DIHEDRAL>
-5.15731

>  <SCORE.INTRA.DIHEDRAL.0>
13.9704

>  <SCORE.INTRA.POLAR>
0

>  <SCORE.INTRA.POLAR.0>
0

>  <SCORE.INTRA.REPUL>
0

>  <SCORE.INTRA.REPUL.0>
0

>  <SCORE.INTRA.SOLV>
0.676208

>  <SCORE.INTRA.SOLV.lig_0>
-70.9758

>  <SCORE.INTRA.VDW>
-0.0142824

>  <SCORE.INTRA.VDW.0>
-2.70686

>  <SCORE.INTRA.norm>
-0.0835124

>  <SCORE.RESTR>
0

>  <SCORE.RESTR.CAVITY>
0

>  <SCORE.RESTR.norm>
0

>  <SCORE.SYSTEM>
0

>  <SCORE.SYSTEM.CONST>
0

>  <SCORE.SYSTEM.DIHEDRAL>
0

>  <SCORE.SYSTEM.SOLV>
0

>  <SCORE.SYSTEM.norm>
0

>  <SCORE.heavy>
27

>  <SCORE.norm>
-0.480225

>  <RMSD>
1.185

$$$$
ligand
 OpenBabel11021811473D
libRbt.so/2013.1/901 2013/11/27
 27 29  0  0  0  0  0  0  0  0999 V2000
   50.5602   56.0416   28.0025 N   0  0  0  0  0  0  0  0  0  0  0  0
   49.1289   56.0377   27.7087 C   0  0  2  0  0  0  0  0  0  0  0  0
   48.4474   57.3918   27.9162 C   0  0  0  0  0  0  0  0  0  0  0  0
   47.7684   57.8272   27.0465 O   0  0  0  0  0  0  0  0  0  0  0  0
   48.3460   54.8672   28.3398 C   0  0  0  0  0  0  0  0  0  0  0  0
   48.2211   54.7778   29.8863 C   0  0  0  0  0  0  0  0  0  0  0  0
   48.1456   53.3436   30.4742 C   0  0  2  0  0  0  0  0  0  0  0  0
   47.4133   52.4136   29.6147 N   0  0  0  0  0  0  0  0  0  0  0  0
   47.6428   53.3382   31.9509 C   0  0  0  0  0  0  0  0  0  0  0  0
   48.5174   54.0441   33.0413 C   0  0  1  0  0  0  0  0  0  0  0  0
   49.3661   55.1653   32.6543 O   0  0  0  0  0  0  0  0  0  0  0  0
   47.7829   54.5353   34.3201 C   0  0  1  0  0  0  0  0  0  0  0  0
   47.2257   53.5448   35.1939 O   0  0  0  0  0  0  0  0  0  0  0  0
   48.6998   55.6482   34.9158 C   0  0  1  0  0  0  0  0  0  0  0  0
   49.3789   55.3727   36.1173 O   0  0  0  0  0  0  0  0  0  0  0  0
   49.5077   56.1078   33.6980 C   0  0  2  0  0  0  0  0  0  0  0  0
   48.2369   57.8417   29.2349 O   0  0  0  0  0  0  0  0  0  0  0  0
   45.4687   59.4061   32.1831 N   0  0  0  0  0  0  0  0  0  0  0  0
   45.3737   58.0621   32.5618 C   0  0  0  0  0  0  0  0  0  0  0  0
   46.5752   57.3223   32.9415 N   0  0  0  0  0  0  0  0  0  0  0  0
   47.7961   57.9424   32.9294 C   0  0  0  0  0  0  0  0  0  0  0  0
   47.8831   59.2947   32.5451 C   0  0  0  0  0  0  0  0  0  0  0  0
   46.6853   60.0311   32.1661 C   0  0  0  0  0  0  0  0  0  0  0  0
   46.7735   61.4363   31.7676 N   0  0  0  0  0  0  0  0  0  0  0  0
   49.2683   59.6903   32.6197 N   0  0  0  0  0  0  0  0  0  0  0  0
   50.0148   58.5676   33.0484 C   0  0  0  0  0  0  0  0  0  0  0  0
   49.1209   57.4761   33.2473 N   0  0  0  0  0  0  0  0  0  0  0  0
  2  1  1  1  0  0  0
  2  3  1  0  0  0  0
  2  5  1  0  0  0  0
  3  4  1  0  0  0  0
  3 17  1  0  0  0  0
  5  6  1  0  0  0  0
  7  6  1  6  0  0  0
  7  8  1  0  0  0  0
  7  9  1  0  0  0  0
 10  9  1  6  0  0  0
 10 11  1  0  0  0  0
 10 12  1  0  0  0  0
 11 16  1  0  0  0  0
 12 13  1  1  0  0  0
 12 14  1  0  0  0  0
 14 15  1  1  0  0  0
 14 16  1  0  0  0  0
 16 27  1  6  0  0  0
 18 19  2  0  0  0  0
 18 23  1  0  0  0  0
 19 20  1  0  0  0  0
 20 21  2  0  0  0  0
 21 22  1  0  0  0  0
 21 27  1  0  0  0  0
 22 23  2  0  0  0  0
 22 25  1  0  0  0  0
 23 24  1  0  0  0  0
 25 26  2  0  0  0  0
 26 27  1  0  0  0  0
M  END
>  <CHROM.1>
129.70776736,65.67890280,-148.26821770,-35.34338506,-63.71820971,28.59483238
69.73326174,48.13775791,56.52244340,31.69161071,-1.46528777,-1.40449035,1.87450823

>  <Name>
ligand

>  <RI>
0

>  <Rbt.Current_Directory>
/home/itssahil/PROJECTS/Mol_Feturizer/New_Systems/rnas/3GX2

>  <Rbt.Executable>
rbdock ($Id: //depot/dev/client3/rdock/2013.1/src/exe/rbdock.cxx#4 $)

>  <Rbt.Library>
libRbt.so (2013.1, Build901 2013/11/27)

>  <Rbt.Parameter_File>
/export/apps/rDock/src/rDock_2013.1_src/data/scripts/dock_solv.prm

>  <Rbt.Receptor>
prm/pocket_docking_2.prm

>  <SCORE>
-9.20298

>  <SCORE.INTER>
-9.10945

>  <SCORE.INTER.CONST>
1

>  <SCORE.INTER.POLAR>
0

>  <SCORE.INTER.ROT>
7

>  <SCORE.INTER.SOLV>
22.0546

>  <SCORE.INTER.VDW>
-21.6912

>  <SCORE.INTER.norm>
-0.337387

>  <SCORE.INTRA>
-0.629404

>  <SCORE.INTRA.DIHEDRAL>
-0.827523

>  <SCORE.INTRA.DIHEDRAL.0>
13.9704

>  <SCORE.INTRA.POLAR>
0

>  <SCORE.INTRA.POLAR.0>
0

>  <SCORE.INTRA.REPUL>
0

>  <SCORE.INTRA.REPUL.0>
0

>  <SCORE.INTRA.SOLV>
0.669284

>  <SCORE.INTRA.SOLV.lig_0>
-70.9758

>  <SCORE.INTRA.VDW>
-0.550284

>  <SCORE.INTRA.VDW.0>
-2.70686

>  <SCORE.INTRA.norm>
-0.0233112

>  <SCORE.RESTR>
0.535878

>  <SCORE.RESTR.CAVITY>
0.535878

>  <SCORE.RESTR.norm>
0.0198473

>  <SCORE.SYSTEM>
0

>  <SCORE.SYSTEM.CONST>
0

>  <SCORE.SYSTEM.DIHEDRAL>
0

>  <SCORE.SYSTEM.SOLV>
0

>  <SCORE.SYSTEM.norm>
0

>  <SCORE.heavy>
27

>  <SCORE.norm>
-0.340851

>  <RMSD>
1.209

$$$$
ligand
 OpenBabel11021811473D
libRbt.so/2013.1/901 2013/11/27
 27 29  0  0  0  0  0  0  0  0999 V2000
   47.9583   56.7625   25.6838 N   0  0  0  0  0  0  0  0  0  0  0  0
   47.6185   56.6653   27.1016 C   0  0  2  0  0  0  0  0  0  0  0  0
   47.7886   57.9755   27.8734 C   0  0  0  0  0  0  0  0  0  0  0  0
   46.8611   58.4081   28.4730 O   0  0  0  0  0  0  0  0  0  0  0  0
   48.2372   55.4535   27.8296 C   0  0  0  0  0  0  0  0  0  0  0  0
   47.7909   55.1254   29.2815 C   0  0  0  0  0  0  0  0  0  0  0  0
   48.2881   53.7692   29.8490 C   0  0  2  0  0  0  0  0  0  0  0  0
   47.9439   52.6335   28.9936 N   0  0  0  0  0  0  0  0  0  0  0  0
   47.8688   53.5643   31.3374 C   0  0  0  0  0  0  0  0  0  0  0  0
   48.6973   54.2849   32.4539 C   0  0  1  0  0  0  0  0  0  0  0  0
   49.4567   55.4825   32.1130 O   0  0  0  0  0  0  0  0  0  0  0  0
   47.9389   54.6629   33.7569 C   0  0  1  0  0  0  0  0  0  0  0  0
   47.4644   53.5959   34.5885 O   0  0  0  0  0  0  0  0  0  0  0  0
   48.7751   55.8140   34.3970 C   0  0  1  0  0  0  0  0  0  0  0  0
   49.4828   55.5374   35.5817 O   0  0  0  0  0  0  0  0  0  0  0  0
   49.5363   56.3861   33.1970 C   0  0  2  0  0  0  0  0  0  0  0  0
   49.0879   58.3659   28.2541 O   0  0  0  0  0  0  0  0  0  0  0  0
   45.2197   59.5169   32.1713 N   0  0  0  0  0  0  0  0  0  0  0  0
   45.2239   58.1665   32.5392 C   0  0  0  0  0  0  0  0  0  0  0  0
   46.4900   57.4770   32.7771 N   0  0  0  0  0  0  0  0  0  0  0  0
   47.6747   58.1504   32.6425 C   0  0  0  0  0  0  0  0  0  0  0  0
   47.6617   59.5088   32.2701 C   0  0  0  0  0  0  0  0  0  0  0  0
   46.3995   60.1951   32.0324 C   0  0  0  0  0  0  0  0  0  0  0  0
   46.3839   61.6065   31.6464 N   0  0  0  0  0  0  0  0  0  0  0  0
   49.0286   59.9644   32.2008 N   0  0  0  0  0  0  0  0  0  0  0  0
   49.8644   58.8717   32.5311 C   0  0  0  0  0  0  0  0  0  0  0  0
   49.0448   57.7401   32.8097 N   0  0  0  0  0  0  0  0  0  0  0  0
  2  1  1  6  0  0  0
  2  3  1  0  0  0  0
  2  5  1  0  0  0  0
  3  4  1  0  0  0  0
  3 17  1  0  0  0  0
  5  6  1  0  0  0  0
  7  6  1  6  0  0  0
  7  8  1  0  0  0  0
  7  9  1  0  0  0  0
 10  9  1  6  0  0  0
 10 11  1  0  0  0  0
 10 12  1  0  0  0  0
 11 16  1  0  0  0  0
 12 13  1  1  0  0  0
 12 14  1  0  0  0  0
 14 15  1  1  0  0  0
 14 16  1  0  0  0  0
 16 27  1  6  0  0  0
 18 19  2  0  0  0  0
 18 23  1  0  0  0  0
 19 20  1  0  0  0  0
 20 21  2  0  0  0  0
 21 22  1  0  0  0  0
 21 27  1  0  0  0  0
 22 23  2  0  0  0  0
 22 25  1  0  0  0  0
 23 24  1  0  0  0  0
 25 26  2  0  0  0  0
 26 27  1  0  0  0  0
M  END
>  <CHROM.1>
124.40758810,-171.31130190,170.52415115,-54.34284166,-79.21657617,23.59373965
76.09078086,47.93914843,56.82712715,31.25784055,-2.04294033,-1.34974101,1.31739552

>  <Name>
ligand

>  <RI>
0

>  <Rbt.Current_Directory>
/home/itssahil/PROJECTS/Mol_Feturizer/New_Systems/rnas/3GX2

>  <Rbt.Executable>
rbdock ($Id: //depot/dev/client3/rdock/2013.1/src/exe/rbdock.cxx#4 $)

>  <Rbt.Library>
libRbt.so (2013.1, Build901 2013/11/27)

>  <Rbt.Parameter_File>
/export/apps/rDock/src/rDock_2013.1_src/data/scripts/dock_solv.prm

>  <Rbt.Receptor>
prm/pocket_docking_2.prm

>  <SCORE>
-10.9454

>  <SCORE.INTER>
-8.28367

>  <SCORE.INTER.CONST>
1

>  <SCORE.INTER.POLAR>
0

>  <SCORE.INTER.ROT>
7

>  <SCORE.INTER.SOLV>
22.9381

>  <SCORE.INTER.VDW>
-21.4351

>  <SCORE.INTER.norm>
-0.306803

>  <SCORE.INTRA>
-2.6761

>  <SCORE.INTRA.DIHEDRAL>
-3.59568

>  <SCORE.INTRA.DIHEDRAL.0>
13.9704

>  <SCORE.INTRA.POLAR>
0

>  <SCORE.INTRA.POLAR.0>
0

>  <SCORE.INTRA.REPUL>
0

>  <SCORE.INTRA.REPUL.0>
0

>  <SCORE.INTRA.SOLV>
-0.169347

>  <SCORE.INTRA.SOLV.lig_0>
-70.9758

>  <SCORE.INTRA.VDW>
-0.793587

>  <SCORE.INTRA.VDW.0>
-2.70686

>  <SCORE.INTRA.norm>
-0.0991149

>  <SCORE.RESTR>
0.0143943

>  <SCORE.RESTR.CAVITY>
0.0143943

>  <SCORE.RESTR.norm>
0.000533124

>  <SCORE.SYSTEM>
0

>  <SCORE.SYSTEM.CONST>
0

>  <SCORE.SYSTEM.DIHEDRAL>
0

>  <SCORE.SYSTEM.SOLV>
0

>  <SCORE.SYSTEM.norm>
0

>  <SCORE.heavy>
27

>  <SCORE.norm>
-0.405384

>  <RMSD>
1.225

$$$$
ligand
 OpenBabel11021811473D
libRbt.so/2013.1/901 2013/11/27
 27 29  0  0  0  0  0  0  0  0999 V2000
   48.2777   56.0125   27.2630 N   0  0  0  0  0  0  0  0  0  0  0  0
   47.1409   56.4873   28.0487 C   0  0  2  0  0  0  0  0  0  0  0  0
   46.4223   57.6923   27.4380 C   0  0  0  0  0  0  0  0  0  0  0  0
   45.4847   58.1447   28.0063 O   0  0  0  0  0  0  0  0  0  0  0  0
   47.4268   56.6576   29.5555 C   0  0  0  0  0  0  0  0  0  0  0  0
   47.5639   55.3971   30.4540 C   0  0  0  0  0  0  0  0  0  0  0  0
   48.7721   54.4748   30.1410 C   0  0  2  0  0  0  0  0  0  0  0  0
   48.6337   53.7673   28.8681 N   0  0  0  0  0  0  0  0  0  0  0  0
   49.1155   53.5291   31.3331 C   0  0  0  0  0  0  0  0  0  0  0  0
   49.3008   54.1564   32.7560 C   0  0  1  0  0  0  0  0  0  0  0  0
   50.0217   55.4175   32.8874 O   0  0  0  0  0  0  0  0  0  0  0  0
   48.0165   54.3516   33.6094 C   0  0  1  0  0  0  0  0  0  0  0  0
   47.3230   53.1780   34.0530 O   0  0  0  0  0  0  0  0  0  0  0  0
   48.3792   55.4600   34.6458 C   0  0  1  0  0  0  0  0  0  0  0  0
   48.5163   55.0843   35.9952 O   0  0  0  0  0  0  0  0  0  0  0  0
   49.5354   56.1965   33.9619 C   0  0  2  0  0  0  0  0  0  0  0  0
   47.1318   58.5099   26.5359 O   0  0  0  0  0  0  0  0  0  0  0  0
   45.5745   59.3648   32.0229 N   0  0  0  0  0  0  0  0  0  0  0  0
   45.4968   58.0046   32.3432 C   0  0  0  0  0  0  0  0  0  0  0  0
   46.6726   57.3058   32.8573 N   0  0  0  0  0  0  0  0  0  0  0  0
   47.8521   57.9800   33.0285 C   0  0  0  0  0  0  0  0  0  0  0  0
   47.9222   59.3484   32.7019 C   0  0  0  0  0  0  0  0  0  0  0  0
   46.7502   60.0440   32.1889 C   0  0  0  0  0  0  0  0  0  0  0  0
   46.8208   61.4658   31.8499 N   0  0  0  0  0  0  0  0  0  0  0  0
   49.2641   59.8026   32.9738 N   0  0  0  0  0  0  0  0  0  0  0  0
   50.0018   58.6992   33.4634 C   0  0  0  0  0  0  0  0  0  0  0  0
   49.1445   57.5620   33.5065 N   0  0  0  0  0  0  0  0  0  0  0  0
  2  1  1  6  0  0  0
  2  3  1  0  0  0  0
  2  5  1  0  0  0  0
  3  4  1  0  0  0  0
  3 17  1  0  0  0  0
  5  6  1  0  0  0  0
  7  6  1  1  0  0  0
  7  8  1  0  0  0  0
  7  9  1  0  0  0  0
 10  9  1  6  0  0  0
 10 11  1  0  0  0  0
 10 12  1  0  0  0  0
 11 16  1  0  0  0  0
 12 13  1  1  0  0  0
 12 14  1  0  0  0  0
 14 15  1  1  0  0  0
 14 16  1  0  0  0  0
 16 27  1  6  0  0  0
 18 19  2  0  0  0  0
 18 23  1  0  0  0  0
 19 20  1  0  0  0  0
 20 21  2  0  0  0  0
 21 22  1  0  0  0  0
 21 27  1  0  0  0  0
 22 23  2  0  0  0  0
 22 25  1  0  0  0  0
 23 24  1  0  0  0  0
 25 26  2  0  0  0  0
 26 27  1  0  0  0  0
M  END
>  <CHROM.1>
179.85984583,-73.40840041,65.00081198,-69.68004652,-51.22579360,-41.03752853
89.85058355,47.86860953,56.76790625,31.54100230,-2.62689103,-1.23804683,0.94405328

>  <Name>
ligand

>  <RI>
0

>  <Rbt.Current_Directory>
/home/itssahil/PROJECTS/Mol_Feturizer/New_Systems/rnas/3GX2

>  <Rbt.Executable>
rbdock ($Id: //depot/dev/client3/rdock/2013.1/src/exe/rbdock.cxx#4 $)

>  <Rbt.Library>
libRbt.so (2013.1, Build901 2013/11/27)

>  <Rbt.Parameter_File>
/export/apps/rDock/src/rDock_2013.1_src/data/scripts/dock_solv.prm

>  <Rbt.Receptor>
prm/pocket_docking_2.prm

>  <SCORE>
-12.7561

>  <SCORE.INTER>
-9.94252

>  <SCORE.INTER.CONST>
1

>  <SCORE.INTER.POLAR>
0

>  <SCORE.INTER.ROT>
7

>  <SCORE.INTER.SOLV>
18.1234

>  <SCORE.INTER.VDW>
-20.9361

>  <SCORE.INTER.norm>
-0.368242

>  <SCORE.INTRA>
-2.8136

>  <SCORE.INTRA.DIHEDRAL>
-6.69535

>  <SCORE.INTRA.DIHEDRAL.0>
13.9704

>  <SCORE.INTRA.POLAR>
0

>  <SCORE.INTRA.POLAR.0>
0

>  <SCORE.INTRA.REPUL>
0

>  <SCORE.INTRA.REPUL.0>
0

>  <SCORE.INTRA.SOLV>
3.88983

>  <SCORE.INTRA.SOLV.lig_0>
-70.9758

>  <SCORE.INTRA.VDW>
-1.41084

>  <SCORE.INTRA.VDW.0>
-2.70686

>  <SCORE.INTRA.norm>
-0.104207

>  <SCORE.RESTR>
0

>  <SCORE.RESTR.CAVITY>
0

>  <SCORE.RESTR.norm>
0

>  <SCORE.SYSTEM>
0

>  <SCORE.SYSTEM.CONST>
0

>  <SCORE.SYSTEM.DIHEDRAL>
0

>  <SCORE.SYSTEM.SOLV>
0

>  <SCORE.SYSTEM.norm>
0

>  <SCORE.heavy>
27

>  <SCORE.norm>
-0.472449

>  <RMSD>
1.228

$$$$
ligand
 OpenBabel11021811473D
libRbt.so/2013.1/901 2013/11/27
 27 29  0  0  0  0  0  0  0  0999 V2000
   47.2708   58.7264   26.9837 N   0  0  0  0  0  0  0  0  0  0  0  0
   47.9002   57.5091   27.4910 C   0  0  2  0  0  0  0  0  0  0  0  0
   47.1773   56.2215   27.0902 C   0  0  0  0  0  0  0  0  0  0  0  0
   46.0266   56.1081   27.3548 O   0  0  0  0  0  0  0  0  0  0  0  0
   48.2676   57.5515   28.9891 C   0  0  0  0  0  0  0  0  0  0  0  0
   49.3141   56.5473   29.5474 C   0  0  0  0  0  0  0  0  0  0  0  0
   48.8425   55.0727   29.6543 C   0  0  2  0  0  0  0  0  0  0  0  0
   47.3926   54.9479   29.8036 N   0  0  0  0  0  0  0  0  0  0  0  0
   49.6401   54.2760   30.7324 C   0  0  0  0  0  0  0  0  0  0  0  0
   49.7166   54.8547   32.1855 C   0  0  1  0  0  0  0  0  0  0  0  0
   50.2871   56.1809   32.3923 O   0  0  0  0  0  0  0  0  0  0  0  0
   48.3968   54.8665   33.0065 C   0  0  1  0  0  0  0  0  0  0  0  0
   47.8288   53.6039   33.3784 O   0  0  0  0  0  0  0  0  0  0  0  0
   48.6053   55.9601   34.0995 C   0  0  1  0  0  0  0  0  0  0  0  0
   48.7489   55.5411   35.4354 O   0  0  0  0  0  0  0  0  0  0  0  0
   49.6884   56.8512   33.4833 C   0  0  2  0  0  0  0  0  0  0  0  0
   47.7141   55.4497   26.0405 O   0  0  0  0  0  0  0  0  0  0  0  0
   45.3299   59.7341   32.0070 N   0  0  0  0  0  0  0  0  0  0  0  0
   45.3801   58.3745   32.3355 C   0  0  0  0  0  0  0  0  0  0  0  0
   46.6508   57.7594   32.7124 N   0  0  0  0  0  0  0  0  0  0  0  0
   47.7946   58.5115   32.7467 C   0  0  0  0  0  0  0  0  0  0  0  0
   47.7356   59.8786   32.4128 C   0  0  0  0  0  0  0  0  0  0  0  0
   46.4691   60.4908   32.0366 C   0  0  0  0  0  0  0  0  0  0  0  0
   46.4057   61.9112   31.6903 N   0  0  0  0  0  0  0  0  0  0  0  0
   49.0665   60.4229   32.5290 N   0  0  0  0  0  0  0  0  0  0  0  0
   49.9271   59.3748   32.9321 C   0  0  0  0  0  0  0  0  0  0  0  0
   49.1580   58.1839   33.0741 N   0  0  0  0  0  0  0  0  0  0  0  0
  2  1  1  1  0  0  0
  2  3  1  0  0  0  0
  2  5  1  0  0  0  0
  3  4  1  0  0  0  0
  3 17  1  0  0  0  0
  5  6  1  0  0  0  0
  7  6  1  1  0  0  0
  7  8  1  0  0  0  0
  7  9  1  0  0  0  0
 10  9  1  6  0  0  0
 10 11  1  0  0  0  0
 10 12  1  0  0  0  0
 11 16  1  0  0  0  0
 12 13  1  1  0  0  0
 12 14  1  0  0  0  0
 14 15  1  1  0  0  0
 14 16  1  0  0  0  0
 16 27  1  6  0  0  0
 18 19  2  0  0  0  0
 18 23  1  0  0  0  0
 19 20  1  0  0  0  0
 20 21  2  0  0  0  0
 21 22  1  0  0  0  0
 21 27  1  0  0  0  0
 22 23  2  0  0  0  0
 22 25  1  0  0  0  0
 23 24  1  0  0  0  0
 25 26  2  0  0  0  0
 26 27  1  0  0  0  0
M  END
>  <CHROM.1>
-55.30698085,-160.92632832,-71.80974779,-26.19981042,53.63325553,-58.68657723
98.89677103,48.03413008,57.13712294,31.15156771,1.98709794,1.17959715,-2.12872455

>  <Name>
ligand

>  <RI>
0

>  <Rbt.Current_Directory>
/home/itssahil/PROJECTS/Mol_Feturizer/New_Systems/rnas/3GX2

>  <Rbt.Executable>
rbdock ($Id: //depot/dev/client3/rdock/2013.1/src/exe/rbdock.cxx#4 $)

>  <Rbt.Library>
libRbt.so (2013.1, Build901 2013/11/27)

>  <Rbt.Parameter_File>
/export/apps/rDock/src/rDock_2013.1_src/data/scripts/dock_solv.prm

>  <Rbt.Receptor>
prm/pocket_docking_2.prm

>  <SCORE>
-10.3244

>  <SCORE.INTER>
-9.28042

>  <SCORE.INTER.CONST>
1

>  <SCORE.INTER.POLAR>
0

>  <SCORE.INTER.ROT>
7

>  <SCORE.INTER.SOLV>
22.9163

>  <SCORE.INTER.VDW>
-22.0924

>  <SCORE.INTER.norm>
-0.343719

>  <SCORE.INTRA>
-1.0513

>  <SCORE.INTRA.DIHEDRAL>
-4.62242

>  <SCORE.INTRA.DIHEDRAL.0>
13.9704

>  <SCORE.INTRA.POLAR>
0

>  <SCORE.INTRA.POLAR.0>
0

>  <SCORE.INTRA.REPUL>
0

>  <SCORE.INTRA.REPUL.0>
0

>  <SCORE.INTRA.SOLV>
4.86227

>  <SCORE.INTRA.SOLV.lig_0>
-70.9758

>  <SCORE.INTRA.VDW>
-1.17122

>  <SCORE.INTRA.VDW.0>
-2.70686

>  <SCORE.INTRA.norm>
-0.0389369

>  <SCORE.RESTR>
0.00735138

>  <SCORE.RESTR.CAVITY>
0.00735138

>  <SCORE.RESTR.norm>
0.000272273

>  <SCORE.SYSTEM>
0

>  <SCORE.SYSTEM.CONST>
0

>  <SCORE.SYSTEM.DIHEDRAL>
0

>  <SCORE.SYSTEM.SOLV>
0

>  <SCORE.SYSTEM.norm>
0

>  <SCORE.heavy>
27

>  <SCORE.norm>
-0.382384

>  <RMSD>
1.246

$$$$
ligand
 OpenBabel11021811473D
libRbt.so/2013.1/901 2013/11/27
 27 29  0  0  0  0  0  0  0  0999 V2000
   49.1126   56.8079   27.7256 N   0  0  0  0  0  0  0  0  0  0  0  0
   47.6608   56.8575   27.8830 C   0  0  2  0  0  0  0  0  0  0  0  0
   47.1484   58.1480   28.5260 C   0  0  0  0  0  0  0  0  0  0  0  0
   47.9288   58.8745   29.0457 O   0  0  0  0  0  0  0  0  0  0  0  0
   47.0372   55.5886   28.5011 C   0  0  0  0  0  0  0  0  0  0  0  0
   47.5571   55.0721   29.8716 C   0  0  0  0  0  0  0  0  0  0  0  0
   49.0695   54.7298   29.9329 C   0  0  2  0  0  0  0  0  0  0  0  0
   49.5966   54.2491   28.6557 N   0  0  0  0  0  0  0  0  0  0  0  0
   49.4126   53.7901   31.1297 C   0  0  0  0  0  0  0  0  0  0  0  0
   49.2814   54.3540   32.5848 C   0  0  1  0  0  0  0  0  0  0  0  0
   49.9234   55.6211   32.9156 O   0  0  0  0  0  0  0  0  0  0  0  0
   47.8432   54.4848   33.1596 C   0  0  1  0  0  0  0  0  0  0  0  0
   47.1063   53.2788   33.4000 O   0  0  0  0  0  0  0  0  0  0  0  0
   47.9519   55.5505   34.2938 C   0  0  1  0  0  0  0  0  0  0  0  0
   47.8171   55.1152   35.6254 O   0  0  0  0  0  0  0  0  0  0  0  0
   49.2033   56.3399   33.8968 C   0  0  2  0  0  0  0  0  0  0  0  0
   45.9167   58.6731   28.0868 O   0  0  0  0  0  0  0  0  0  0  0  0
   45.4254   59.6421   31.8205 N   0  0  0  0  0  0  0  0  0  0  0  0
   45.2888   58.2861   32.1392 C   0  0  0  0  0  0  0  0  0  0  0  0
   46.4209   57.5473   32.6938 N   0  0  0  0  0  0  0  0  0  0  0  0
   47.6170   58.1798   32.9047 C   0  0  0  0  0  0  0  0  0  0  0  0
   47.7465   59.5442   32.5794 C   0  0  0  0  0  0  0  0  0  0  0  0
   46.6181   60.2796   32.0260 C   0  0  0  0  0  0  0  0  0  0  0  0
   46.7505   61.6973   31.6884 N   0  0  0  0  0  0  0  0  0  0  0  0
   49.0935   59.9513   32.8968 N   0  0  0  0  0  0  0  0  0  0  0  0
   49.7746   58.8235   33.4123 C   0  0  0  0  0  0  0  0  0  0  0  0
   48.8767   57.7174   33.4270 N   0  0  0  0  0  0  0  0  0  0  0  0
  2  1  1  1  0  0  0
  2  3  1  0  0  0  0
  2  5  1  0  0  0  0
  3  4  1  0  0  0  0
  3 17  1  0  0  0  0
  5  6  1  0  0  0  0
  7  6  1  6  0  0  0
  7  8  1  0  0  0  0
  7  9  1  0  0  0  0
 10  9  1  6  0  0  0
 10 11  1  0  0  0  0
 10 12  1  0  0  0  0
 11 16  1  0  0  0  0
 12 13  1  1  0  0  0
 12 14  1  0  0  0  0
 14 15  1  1  0  0  0
 14 16  1  0  0  0  0
 16 27  1  6  0  0  0
 18 19  2  0  0  0  0
 18 23  1  0  0  0  0
 19 20  1  0  0  0  0
 20 21  2  0  0  0  0
 21 22  1  0  0  0  0
 21 27  1  0  0  0  0
 22 23  2  0  0  0  0
 22 25  1  0  0  0  0
 23 24  1  0  0  0  0
 25 26  2  0  0  0  0
 26 27  1  0  0  0  0
M  END
>  <CHROM.1>
-12.90331908,55.06025213,-58.50444747,-31.29270726,-68.00231892,-50.81686284
100.75685680,47.89670156,56.95723041,31.49103246,-2.75849479,-1.26011172
1.36962328

>  <Name>
ligand

>  <RI>
0

>  <Rbt.Current_Directory>
/home/itssahil/PROJECTS/Mol_Feturizer/New_Systems/rnas/3GX2

>  <Rbt.Executable>
rbdock ($Id: //depot/dev/client3/rdock/2013.1/src/exe/rbdock.cxx#4 $)

>  <Rbt.Library>
libRbt.so (2013.1, Build901 2013/11/27)

>  <Rbt.Parameter_File>
/export/apps/rDock/src/rDock_2013.1_src/data/scripts/dock_solv.prm

>  <Rbt.Receptor>
prm/pocket_docking_2.prm

>  <SCORE>
-10.8188

>  <SCORE.INTER>
-8.97983

>  <SCORE.INTER.CONST>
1

>  <SCORE.INTER.POLAR>
0

>  <SCORE.INTER.ROT>
7

>  <SCORE.INTER.SOLV>
19.3691

>  <SCORE.INTER.VDW>
-20.7096

>  <SCORE.INTER.norm>
-0.332586

>  <SCORE.INTRA>
-1.86445

>  <SCORE.INTRA.DIHEDRAL>
-6.26462

>  <SCORE.INTRA.DIHEDRAL.0>
13.9704

>  <SCORE.INTRA.POLAR>
0

>  <SCORE.INTRA.POLAR.0>
0

>  <SCORE.INTRA.REPUL>
0

>  <SCORE.INTRA.REPUL.0>
0

>  <SCORE.INTRA.SOLV>
4.9144

>  <SCORE.INTRA.SOLV.lig_0>
-70.9758

>  <SCORE.INTRA.VDW>
-1.18935

>  <SCORE.INTRA.VDW.0>
-2.70686

>  <SCORE.INTRA.norm>
-0.0690537

>  <SCORE.RESTR>
0.0254421

>  <SCORE.RESTR.CAVITY>
0.0254421

>  <SCORE.RESTR.norm>
0.000942299

>  <SCORE.SYSTEM>
0

>  <SCORE.SYSTEM.CONST>
0

>  <SCORE.SYSTEM.DIHEDRAL>
0

>  <SCORE.SYSTEM.SOLV>
0

>  <SCORE.SYSTEM.norm>
0

>  <SCORE.heavy>
27

>  <SCORE.norm>
-0.400698

>  <RMSD>
1.272

$$$$
ligand
 OpenBabel11021811473D
libRbt.so/2013.1/901 2013/11/27
 27 29  0  0  0  0  0  0  0  0999 V2000
   47.3052   55.7729   27.1917 N   0  0  0  0  0  0  0  0  0  0  0  0
   47.5152   56.9545   28.0252 C   0  0  2  0  0  0  0  0  0  0  0  0
   46.9708   58.2490   27.4178 C   0  0  0  0  0  0  0  0  0  0  0  0
   47.1856   58.4759   26.2736 O   0  0  0  0  0  0  0  0  0  0  0  0
   48.9481   57.1052   28.5778 C   0  0  0  0  0  0  0  0  0  0  0  0
   49.3570   56.3305   29.8614 C   0  0  0  0  0  0  0  0  0  0  0  0
   48.9826   54.8247   29.8875 C   0  0  2  0  0  0  0  0  0  0  0  0
   47.5389   54.5958   29.8291 N   0  0  0  0  0  0  0  0  0  0  0  0
   49.6761   54.0656   31.0606 C   0  0  0  0  0  0  0  0  0  0  0  0
   49.4697   54.5952   32.5198 C   0  0  1  0  0  0  0  0  0  0  0  0
   50.0305   55.8892   32.8913 O   0  0  0  0  0  0  0  0  0  0  0  0
   48.0096   54.6369   33.0511 C   0  0  1  0  0  0  0  0  0  0  0  0
   47.3333   53.3884   33.2484 O   0  0  0  0  0  0  0  0  0  0  0  0
   48.0247   55.6863   34.2054 C   0  0  1  0  0  0  0  0  0  0  0  0
   47.8735   55.2203   35.5249 O   0  0  0  0  0  0  0  0  0  0  0  0
   49.2422   56.5498   33.8609 C   0  0  2  0  0  0  0  0  0  0  0  0
   45.8708   58.8716   28.0409 O   0  0  0  0  0  0  0  0  0  0  0  0
   45.2990   59.7172   31.8846 N   0  0  0  0  0  0  0  0  0  0  0  0
   45.2194   58.3563   32.2016 C   0  0  0  0  0  0  0  0  0  0  0  0
   46.3903   57.6579   32.7272 N   0  0  0  0  0  0  0  0  0  0  0  0
   47.5672   58.3331   32.9124 C   0  0  0  0  0  0  0  0  0  0  0  0
   47.6392   59.7022   32.5890 C   0  0  0  0  0  0  0  0  0  0  0  0
   46.4721   60.3974   32.0646 C   0  0  0  0  0  0  0  0  0  0  0  0
   46.5447   61.8199   31.7289 N   0  0  0  0  0  0  0  0  0  0  0  0
   48.9775   60.1575   32.8764 N   0  0  0  0  0  0  0  0  0  0  0  0
   49.7111   59.0540   33.3720 C   0  0  0  0  0  0  0  0  0  0  0  0
   48.8547   57.9157   33.4037 N   0  0  0  0  0  0  0  0  0  0  0  0
  2  1  1  6  0  0  0
  2  3  1  0  0  0  0
  2  5  1  0  0  0  0
  3  4  1  0  0  0  0
  3 17  1  0  0  0  0
  5  6  1  0  0  0  0
  7  6  1  1  0  0  0
  7  8  1  0  0  0  0
  7  9  1  0  0  0  0
 10  9  1  6  0  0  0
 10 11  1  0  0  0  0
 10 12  1  0  0  0  0
 11 16  1  0  0  0  0
 12 13  1  1  0  0  0
 12 14  1  0  0  0  0
 14 15  1  1  0  0  0
 14 16  1  0  0  0  0
 16 27  1  6  0  0  0
 18 19  2  0  0  0  0
 18 23  1  0  0  0  0
 19 20  1  0  0  0  0
 20 21  2  0  0  0  0
 21 22  1  0  0  0  0
 21 27  1  0  0  0  0
 22 23  2  0  0  0  0
 22 25  1  0  0  0  0
 23 24  1  0  0  0  0
 25 26  2  0  0  0  0
 26 27  1  0  0  0  0
M  END
>  <CHROM.1>
-45.17669484,-82.82084427,47.88945478,-62.46486810,55.48721173,-66.85821241
104.14017771,47.85284310,57.14536272,31.34188636,-2.39071850,-1.22058108
1.24810792

>  <Name>
ligand

>  <RI>
0

>  <Rbt.Current_Directory>
/home/itssahil/PROJECTS/Mol_Feturizer/New_Systems/rnas/3GX2

>  <Rbt.Executable>
rbdock ($Id: //depot/dev/client3/rdock/2013.1/src/exe/rbdock.cxx#4 $)

>  <Rbt.Library>
libRbt.so (2013.1, Build901 2013/11/27)

>  <Rbt.Parameter_File>
/export/apps/rDock/src/rDock_2013.1_src/data/scripts/dock_solv.prm

>  <Rbt.Receptor>
prm/pocket_docking_2.prm

>  <SCORE>
-12.9946

>  <SCORE.INTER>
-11.2258

>  <SCORE.INTER.CONST>
1

>  <SCORE.INTER.POLAR>
0

>  <SCORE.INTER.ROT>
7

>  <SCORE.INTER.SOLV>
19.846

>  <SCORE.INTER.VDW>
-22.3659

>  <SCORE.INTER.norm>
-0.415771

>  <SCORE.INTRA>
-1.76879

>  <SCORE.INTRA.DIHEDRAL>
-7.08024

>  <SCORE.INTRA.DIHEDRAL.0>
13.9704

>  <SCORE.INTRA.POLAR>
0

>  <SCORE.INTRA.POLAR.0>
0

>  <SCORE.INTRA.REPUL>
0

>  <SCORE.INTRA.REPUL.0>
0

>  <SCORE.INTRA.SOLV>
5.70052

>  <SCORE.INTRA.SOLV.lig_0>
-70.9758

>  <SCORE.INTRA.VDW>
-1.07894

>  <SCORE.INTRA.VDW.0>
-2.70686

>  <SCORE.INTRA.norm>
-0.0655109

>  <SCORE.RESTR>
0

>  <SCORE.RESTR.CAVITY>
0

>  <SCORE.RESTR.norm>
0

>  <SCORE.SYSTEM>
0

>  <SCORE.SYSTEM.CONST>
0

>  <SCORE.SYSTEM.DIHEDRAL>
0

>  <SCORE.SYSTEM.SOLV>
0

>  <SCORE.SYSTEM.norm>
0

>  <SCORE.heavy>
27

>  <SCORE.norm>
-0.481282

>  <RMSD>
1.277

$$$$
ligand
 OpenBabel11021811473D
libRbt.so/2013.1/901 2013/11/27
 27 29  0  0  0  0  0  0  0  0999 V2000
   48.0572   55.6333   26.4039 N   0  0  0  0  0  0  0  0  0  0  0  0
   48.1190   56.4522   27.6124 C   0  0  2  0  0  0  0  0  0  0  0  0
   47.4058   57.8002   27.4877 C   0  0  0  0  0  0  0  0  0  0  0  0
   46.3048   57.8236   27.0472 O   0  0  0  0  0  0  0  0  0  0  0  0
   49.5247   56.5708   28.2376 C   0  0  0  0  0  0  0  0  0  0  0  0
   49.8015   55.9235   29.6231 C   0  0  0  0  0  0  0  0  0  0  0  0
   49.3125   54.4604   29.7928 C   0  0  2  0  0  0  0  0  0  0  0  0
   47.8683   54.3178   29.6089 N   0  0  0  0  0  0  0  0  0  0  0  0
   49.8278   53.8172   31.1172 C   0  0  0  0  0  0  0  0  0  0  0  0
   49.3504   54.4252   32.4791 C   0  0  1  0  0  0  0  0  0  0  0  0
   49.8794   55.7161   32.9045 O   0  0  0  0  0  0  0  0  0  0  0  0
   47.8158   54.5433   32.6954 C   0  0  1  0  0  0  0  0  0  0  0  0
   47.0595   53.3299   32.8005 O   0  0  0  0  0  0  0  0  0  0  0  0
   47.6402   55.6475   33.7834 C   0  0  1  0  0  0  0  0  0  0  0  0
   47.2019   55.2530   35.0614 O   0  0  0  0  0  0  0  0  0  0  0  0
   48.9391   56.4506   33.6622 C   0  0  2  0  0  0  0  0  0  0  0  0
   47.8351   58.8643   28.3056 O   0  0  0  0  0  0  0  0  0  0  0  0
   45.2948   60.1442   32.0609 N   0  0  0  0  0  0  0  0  0  0  0  0
   45.0426   58.8801   32.6060 C   0  0  0  0  0  0  0  0  0  0  0  0
   46.1550   58.0107   32.9827 N   0  0  0  0  0  0  0  0  0  0  0  0
   47.4461   58.4311   32.8052 C   0  0  0  0  0  0  0  0  0  0  0  0
   47.6910   59.7041   32.2541 C   0  0  0  0  0  0  0  0  0  0  0  0
   46.5820   60.5696   31.8782 C   0  0  0  0  0  0  0  0  0  0  0  0
   46.8346   61.8928   31.3065 N   0  0  0  0  0  0  0  0  0  0  0  0
   49.1197   59.8883   32.1774 N   0  0  0  0  0  0  0  0  0  0  0  0
   49.7330   58.7178   32.6829 C   0  0  0  0  0  0  0  0  0  0  0  0
   48.7134   57.8046   33.0785 N   0  0  0  0  0  0  0  0  0  0  0  0
  2  1  1  6  0  0  0
  2  3  1  0  0  0  0
  2  5  1  0  0  0  0
  3  4  1  0  0  0  0
  3 17  1  0  0  0  0
  5  6  1  0  0  0  0
  7  6  1  1  0  0  0
  7  8  1  0  0  0  0
  7  9  1  0  0  0  0
 10  9  1  6  0  0  0
 10 11  1  0  0  0  0
 10 12  1  0  0  0  0
 11 16  1  0  0  0  0
 12 13  1  1  0  0  0
 12 14  1  0  0  0  0
 14 15  1  1  0  0  0
 14 16  1  0  0  0  0
 16 27  1  6  0  0  0
 18 19  2  0  0  0  0
 18 23  1  0  0  0  0
 19 20  1  0  0  0  0
 20 21  2  0  0  0  0
 21 22  1  0  0  0  0
 21 27  1  0  0  0  0
 22 23  2  0  0  0  0
 22 25  1  0  0  0  0
 23 24  1  0  0  0  0
 25 26  2  0  0  0  0
 26 27  1  0  0  0  0
M  END
>  <CHROM.1>
48.52928464,-112.79036482,47.65129547,-59.89274054,64.11371601,-72.55911869
131.35116848,47.94851256,57.02016117,31.17136503,0.91429260,1.23547933,-1.44048759

>  <Name>
ligand

>  <RI>
0

>  <Rbt.Current_Directory>
/home/itssahil/PROJECTS/Mol_Feturizer/New_Systems/rnas/3GX2

>  <Rbt.Executable>
rbdock ($Id: //depot/dev/client3/rdock/2013.1/src/exe/rbdock.cxx#4 $)

>  <Rbt.Library>
libRbt.so (2013.1, Build901 2013/11/27)

>  <Rbt.Parameter_File>
/export/apps/rDock/src/rDock_2013.1_src/data/scripts/dock_solv.prm

>  <Rbt.Receptor>
prm/pocket_docking_2.prm

>  <SCORE>
-8.98848

>  <SCORE.INTER>
-9.98898

>  <SCORE.INTER.CONST>
1

>  <SCORE.INTER.POLAR>
0

>  <SCORE.INTER.ROT>
7

>  <SCORE.INTER.SOLV>
19.9714

>  <SCORE.INTER.VDW>
-21.5831

>  <SCORE.INTER.norm>
-0.369962

>  <SCORE.INTRA>
0.796466

>  <SCORE.INTRA.DIHEDRAL>
-3.23002

>  <SCORE.INTRA.DIHEDRAL.0>
13.9704

>  <SCORE.INTRA.POLAR>
0

>  <SCORE.INTRA.POLAR.0>
0

>  <SCORE.INTRA.REPUL>
0

>  <SCORE.INTRA.REPUL.0>
0

>  <SCORE.INTRA.SOLV>
5.17282

>  <SCORE.INTRA.SOLV.lig_0>
-70.9758

>  <SCORE.INTRA.VDW>
-0.174931

>  <SCORE.INTRA.VDW.0>
-2.70686

>  <SCORE.INTRA.norm>
0.0294987

>  <SCORE.RESTR>
0.204038

>  <SCORE.RESTR.CAVITY>
0.204038

>  <SCORE.RESTR.norm>
0.00755694

>  <SCORE.SYSTEM>
0

>  <SCORE.SYSTEM.CONST>
0

>  <SCORE.SYSTEM.DIHEDRAL>
0

>  <SCORE.SYSTEM.SOLV>
0

>  <SCORE.SYSTEM.norm>
0

>  <SCORE.heavy>
27

>  <SCORE.norm>
-0.332907

>  <RMSD>
1.322

$$$$
ligand
 OpenBabel11021811473D
libRbt.so/2013.1/901 2013/11/27
 27 29  0  0  0  0  0  0  0  0999 V2000
   45.9407   56.1877   27.4359 N   0  0  0  0  0  0  0  0  0  0  0  0
   47.2190   55.9915   28.1158 C   0  0  2  0  0  0  0  0  0  0  0  0
   48.4235   56.5369   27.3456 C   0  0  0  0  0  0  0  0  0  0  0  0
   48.2317   57.2675   26.4311 O   0  0  0  0  0  0  0  0  0  0  0  0
   47.4471   54.5647   28.6574 C   0  0  0  0  0  0  0  0  0  0  0  0
   48.8000   54.2127   29.3361 C   0  0  0  0  0  0  0  0  0  0  0  0
   48.7962   52.9421   30.2272 C   0  0  2  0  0  0  0  0  0  0  0  0
   48.3392   51.7487   29.5152 N   0  0  0  0  0  0  0  0  0  0  0  0
   48.0509   53.1723   31.5780 C   0  0  0  0  0  0  0  0  0  0  0  0
   48.7958   53.9399   32.7218 C   0  0  1  0  0  0  0  0  0  0  0  0
   49.5433   55.1489   32.3955 O   0  0  0  0  0  0  0  0  0  0  0  0
   47.9547   54.3275   33.9701 C   0  0  1  0  0  0  0  0  0  0  0  0
   47.4601   53.2677   34.7992 O   0  0  0  0  0  0  0  0  0  0  0  0
   48.7238   55.5146   34.6285 C   0  0  1  0  0  0  0  0  0  0  0  0
   49.3691   55.2839   35.8578 O   0  0  0  0  0  0  0  0  0  0  0  0
   49.5380   56.0789   33.4600 C   0  0  2  0  0  0  0  0  0  0  0  0
   49.6747   56.5698   27.9930 O   0  0  0  0  0  0  0  0  0  0  0  0
   45.1977   59.1207   32.2784 N   0  0  0  0  0  0  0  0  0  0  0  0
   45.2127   57.7873   32.7036 C   0  0  0  0  0  0  0  0  0  0  0  0
   46.4839   57.1210   32.9776 N   0  0  0  0  0  0  0  0  0  0  0  0
   47.6629   57.7996   32.8207 C   0  0  0  0  0  0  0  0  0  0  0  0
   47.6390   59.1407   32.3905 C   0  0  0  0  0  0  0  0  0  0  0  0
   46.3718   59.8038   32.1170 C   0  0  0  0  0  0  0  0  0  0  0  0
   46.3449   61.1973   31.6709 N   0  0  0  0  0  0  0  0  0  0  0  0
   49.0019   59.6063   32.3092 N   0  0  0  0  0  0  0  0  0  0  0  0
   49.8462   58.5369   32.6903 C   0  0  0  0  0  0  0  0  0  0  0  0
   49.0359   57.4102   33.0126 N   0  0  0  0  0  0  0  0  0  0  0  0
  2  1  1  6  0  0  0
  2  3  1  0  0  0  0
  2  5  1  0  0  0  0
  3  4  1  0  0  0  0
  3 17  1  0  0  0  0
  5  6  1  0  0  0  0
  7  6  1  6  0  0  0
  7  8  1  0  0  0  0
  7  9  1  0  0  0  0
 10  9  1  6  0  0  0
 10 11  1  0  0  0  0
 10 12  1  0  0  0  0
 11 16  1  0  0  0  0
 12 13  1  1  0  0  0
 12 14  1  0  0  0  0
 14 15  1  1  0  0  0
 14 16  1  0  0  0  0
 16 27  1  6  0  0  0
 18 19  2  0  0  0  0
 18 23  1  0  0  0  0
 19 20  1  0  0  0  0
 20 21  2  0  0  0  0
 21 22  1  0  0  0  0
 21 27  1  0  0  0  0
 22 23  2  0  0  0  0
 22 25  1  0  0  0  0
 23 24  1  0  0  0  0
 25 26  2  0  0  0  0
 26 27  1  0  0  0  0
M  END
>  <CHROM.1>
13.77748536,176.89586214,161.69116224,55.61073272,-78.41349596,44.35839215
79.36814040,47.99758683,56.24625355,31.43159138,1.59179780,1.30881975,-1.80703655

>  <Name>
ligand

>  <RI>
0

>  <Rbt.Current_Directory>
/home/itssahil/PROJECTS/Mol_Feturizer/New_Systems/rnas/3GX2

>  <Rbt.Executable>
rbdock ($Id: //depot/dev/client3/rdock/2013.1/src/exe/rbdock.cxx#4 $)

>  <Rbt.Library>
libRbt.so (2013.1, Build901 2013/11/27)

>  <Rbt.Parameter_File>
/export/apps/rDock/src/rDock_2013.1_src/data/scripts/dock_solv.prm

>  <Rbt.Receptor>
prm/pocket_docking_2.prm

>  <SCORE>
-9.10172

>  <SCORE.INTER>
-7.31552

>  <SCORE.INTER.CONST>
1

>  <SCORE.INTER.POLAR>
0

>  <SCORE.INTER.ROT>
7

>  <SCORE.INTER.SOLV>
23.1771

>  <SCORE.INTER.VDW>
-20.8694

>  <SCORE.INTER.norm>
-0.270945

>  <SCORE.INTRA>
-2.17904

>  <SCORE.INTRA.DIHEDRAL>
-5.65622

>  <SCORE.INTRA.DIHEDRAL.0>
13.9704

>  <SCORE.INTRA.POLAR>
0

>  <SCORE.INTRA.POLAR.0>
0

>  <SCORE.INTRA.REPUL>
0

>  <SCORE.INTRA.REPUL.0>
0

>  <SCORE.INTRA.SOLV>
-0.167283

>  <SCORE.INTRA.SOLV.lig_0>
-70.9758

>  <SCORE.INTRA.VDW>
0.732713

>  <SCORE.INTRA.VDW.0>
-2.70686

>  <SCORE.INTRA.norm>
-0.0807052

>  <SCORE.RESTR>
0.39284

>  <SCORE.RESTR.CAVITY>
0.39284

>  <SCORE.RESTR.norm>
0.0145496

>  <SCORE.SYSTEM>
0

>  <SCORE.SYSTEM.CONST>
0

>  <SCORE.SYSTEM.DIHEDRAL>
0

>  <SCORE.SYSTEM.SOLV>
0

>  <SCORE.SYSTEM.norm>
0

>  <SCORE.heavy>
27

>  <SCORE.norm>
-0.337101

>  <RMSD>
1.338

$$$$
ligand
 OpenBabel11021811473D
libRbt.so/2013.1/901 2013/11/27
 27 29  0  0  0  0  0  0  0  0999 V2000
   49.0942   54.9117   26.5445 N   0  0  0  0  0  0  0  0  0  0  0  0
   48.2205   54.9547   27.7149 C   0  0  2  0  0  0  0  0  0  0  0  0
   46.7945   55.4184   27.4101 C   0  0  0  0  0  0  0  0  0  0  0  0
   45.8863   54.7849   27.8352 O   0  0  0  0  0  0  0  0  0  0  0  0
   48.8304   55.6551   28.9473 C   0  0  0  0  0  0  0  0  0  0  0  0
   50.0624   55.0232   29.6530 C   0  0  0  0  0  0  0  0  0  0  0  0
   49.8434   53.6083   30.2518 C   0  0  2  0  0  0  0  0  0  0  0  0
   49.5189   52.6049   29.2379 N   0  0  0  0  0  0  0  0  0  0  0  0
   48.8372   53.6225   31.4437 C   0  0  0  0  0  0  0  0  0  0  0  0
   49.2772   54.2987   32.7859 C   0  0  1  0  0  0  0  0  0  0  0  0
   50.0543   55.5320   32.7380 O   0  0  0  0  0  0  0  0  0  0  0  0
   48.1593   54.5833   33.8276 C   0  0  1  0  0  0  0  0  0  0  0  0
   47.5074   53.4595   34.4335 O   0  0  0  0  0  0  0  0  0  0  0  0
   48.7274   55.7164   34.7372 C   0  0  1  0  0  0  0  0  0  0  0  0
   49.0721   55.3905   36.0623 O   0  0  0  0  0  0  0  0  0  0  0  0
   49.7801   56.3743   33.8395 C   0  0  2  0  0  0  0  0  0  0  0  0
   46.5855   56.7724   27.0807 O   0  0  0  0  0  0  0  0  0  0  0  0
   45.7152   59.5453   32.1343 N   0  0  0  0  0  0  0  0  0  0  0  0
   45.6502   58.1912   32.4821 C   0  0  0  0  0  0  0  0  0  0  0  0
   46.8543   57.4905   32.9229 N   0  0  0  0  0  0  0  0  0  0  0  0
   48.0481   58.1571   32.9984 C   0  0  0  0  0  0  0  0  0  0  0  0
   48.1051   59.5193   32.6446 C   0  0  0  0  0  0  0  0  0  0  0  0
   46.9049   60.2167   32.2047 C   0  0  0  0  0  0  0  0  0  0  0  0
   46.9619   61.6322   31.8377 N   0  0  0  0  0  0  0  0  0  0  0  0
   49.4664   59.9662   32.8128 N   0  0  0  0  0  0  0  0  0  0  0  0
   50.2287   58.8644   33.2671 C   0  0  0  0  0  0  0  0  0  0  0  0
   49.3681   57.7356   33.3901 N   0  0  0  0  0  0  0  0  0  0  0  0
  2  1  1  6  0  0  0
  2  3  1  0  0  0  0
  2  5  1  0  0  0  0
  3  4  1  0  0  0  0
  3 17  1  0  0  0  0
  5  6  1  0  0  0  0
  7  6  1  6  0  0  0
  7  8  1  0  0  0  0
  7  9  1  0  0  0  0
 10  9  1  6  0  0  0
 10 11  1  0  0  0  0
 10 12  1  0  0  0  0
 11 16  1  0  0  0  0
 12 13  1  1  0  0  0
 12 14  1  0  0  0  0
 14 15  1  1  0  0  0
 14 16  1  0  0  0  0
 16 27  1  6  0  0  0
 18 19  2  0  0  0  0
 18 23  1  0  0  0  0
 19 20  1  0  0  0  0
 20 21  2  0  0  0  0
 21 22  1  0  0  0  0
 21 27  1  0  0  0  0
 22 23  2  0  0  0  0
 22 25  1  0  0  0  0
 23 24  1  0  0  0  0
 25 26  2  0  0  0  0
 26 27  1  0  0  0  0
M  END
>  <CHROM.1>
131.77527813,-65.59973978,-61.47034156,62.69541911,-69.65037168,39.35093095
83.96369860,48.27329199,56.37016657,31.49813204,1.60344737,1.17833053,-2.16414696

>  <Name>
ligand

>  <RI>
0

>  <Rbt.Current_Directory>
/home/itssahil/PROJECTS/Mol_Feturizer/New_Systems/rnas/3GX2

>  <Rbt.Executable>
rbdock ($Id: //depot/dev/client3/rdock/2013.1/src/exe/rbdock.cxx#4 $)

>  <Rbt.Library>
libRbt.so (2013.1, Build901 2013/11/27)

>  <Rbt.Parameter_File>
/export/apps/rDock/src/rDock_2013.1_src/data/scripts/dock_solv.prm

>  <Rbt.Receptor>
prm/pocket_docking_5.prm

>  <SCORE>
-13.0585

>  <SCORE.INTER>
-10.3582

>  <SCORE.INTER.CONST>
1

>  <SCORE.INTER.POLAR>
0

>  <SCORE.INTER.ROT>
7

>  <SCORE.INTER.SOLV>
19.5244

>  <SCORE.INTER.VDW>
-21.6802

>  <SCORE.INTER.norm>
-0.383635

>  <SCORE.INTRA>
-2.70308

>  <SCORE.INTRA.DIHEDRAL>
-7.17944

>  <SCORE.INTRA.DIHEDRAL.0>
13.9704

>  <SCORE.INTRA.POLAR>
0

>  <SCORE.INTRA.POLAR.0>
0

>  <SCORE.INTRA.REPUL>
0

>  <SCORE.INTRA.REPUL.0>
0

>  <SCORE.INTRA.SOLV>
2.62408

>  <SCORE.INTRA.SOLV.lig_0>
-70.9758

>  <SCORE.INTRA.VDW>
-0.425396

>  <SCORE.INTRA.VDW.0>
-2.70686

>  <SCORE.INTRA.norm>
-0.100114

>  <SCORE.RESTR>
0.00268689

>  <SCORE.RESTR.CAVITY>
0.00268689

>  <SCORE.RESTR.norm>
9.95144e-05

>  <SCORE.SYSTEM>
0

>  <SCORE.SYSTEM.CONST>
0

>  <SCORE.SYSTEM.DIHEDRAL>
0

>  <SCORE.SYSTEM.SOLV>
0

>  <SCORE.SYSTEM.norm>
0

>  <SCORE.heavy>
27

>  <SCORE.norm>
-0.48365

>  <RMSD>
1.340

$$$$
ligand
 OpenBabel11021811473D
libRbt.so/2013.1/901 2013/11/27
 27 29  0  0  0  0  0  0  0  0999 V2000
   48.4501   56.6286   26.5670 N   0  0  0  0  0  0  0  0  0  0  0  0
   47.5419   56.3430   27.6754 C   0  0  2  0  0  0  0  0  0  0  0  0
   47.7334   57.2565   28.8879 C   0  0  0  0  0  0  0  0  0  0  0  0
   48.7376   57.1703   29.5133 O   0  0  0  0  0  0  0  0  0  0  0  0
   47.4412   54.8510   28.0562 C   0  0  0  0  0  0  0  0  0  0  0  0
   48.7420   54.0306   28.2803 C   0  0  0  0  0  0  0  0  0  0  0  0
   49.5656   54.4046   29.5412 C   0  0  2  0  0  0  0  0  0  0  0  0
   50.9359   53.8944   29.4983 N   0  0  0  0  0  0  0  0  0  0  0  0
   48.8183   54.0424   30.8616 C   0  0  0  0  0  0  0  0  0  0  0  0
   49.3047   54.6948   32.1996 C   0  0  1  0  0  0  0  0  0  0  0  0
   49.9983   55.9770   32.1530 O   0  0  0  0  0  0  0  0  0  0  0  0
   48.2441   54.8668   33.3227 C   0  0  1  0  0  0  0  0  0  0  0  0
   47.7059   53.6809   33.9221 O   0  0  0  0  0  0  0  0  0  0  0  0
   48.8004   55.9994   34.2401 C   0  0  1  0  0  0  0  0  0  0  0  0
   49.2534   55.6470   35.5252 O   0  0  0  0  0  0  0  0  0  0  0  0
   49.7470   56.7576   33.3042 C   0  0  2  0  0  0  0  0  0  0  0  0
   46.9937   58.4543   28.9487 O   0  0  0  0  0  0  0  0  0  0  0  0
   45.3729   59.7399   32.0959 N   0  0  0  0  0  0  0  0  0  0  0  0
   45.4142   58.3755   32.4049 C   0  0  0  0  0  0  0  0  0  0  0  0
   46.6909   57.7320   32.7064 N   0  0  0  0  0  0  0  0  0  0  0  0
   47.8492   58.4622   32.6892 C   0  0  0  0  0  0  0  0  0  0  0  0
   47.7990   59.8345   32.3754 C   0  0  0  0  0  0  0  0  0  0  0  0
   46.5263   60.4749   32.0743 C   0  0  0  0  0  0  0  0  0  0  0  0
   46.4720   61.9006   31.7490 N   0  0  0  0  0  0  0  0  0  0  0  0
   49.1443   60.3524   32.4274 N   0  0  0  0  0  0  0  0  0  0  0  0
   50.0047   59.2834   32.7717 C   0  0  0  0  0  0  0  0  0  0  0  0
   49.2215   58.1052   32.9399 N   0  0  0  0  0  0  0  0  0  0  0  0
  2  1  1  6  0  0  0
  2  3  1  0  0  0  0
  2  5  1  0  0  0  0
  3  4  1  0  0  0  0
  3 17  1  0  0  0  0
  5  6  1  0  0  0  0
  7  6  1  6  0  0  0
  7  8  1  0  0  0  0
  7  9  1  0  0  0  0
 10  9  1  6  0  0  0
 10 11  1  0  0  0  0
 10 12  1  0  0  0  0
 11 16  1  0  0  0  0
 12 13  1  1  0  0  0
 12 14  1  0  0  0  0
 14 15  1  1  0  0  0
 14 16  1  0  0  0  0
 16 27  1  6  0  0  0
 18 19  2  0  0  0  0
 18 23  1  0  0  0  0
 19 20  1  0  0  0  0
 20 21  2  0  0  0  0
 21 22  1  0  0  0  0
 21 27  1  0  0  0  0
 22 23  2  0  0  0  0
 22 25  1  0  0  0  0
 23 24  1  0  0  0  0
 25 26  2  0  0  0  0
 26 27  1  0  0  0  0
M  END
>  <CHROM.1>
-67.44333759,49.66401820,69.05095443,-163.33075610,-163.28316628,25.71693860
85.84691357,48.25980887,56.93784799,31.34883350,0.85003231,1.16940482,-1.86580246

>  <Name>
ligand

>  <RI>
0

>  <Rbt.Current_Directory>
/home/itssahil/PROJECTS/Mol_Feturizer/New_Systems/rnas/3GX2

>  <Rbt.Executable>
rbdock ($Id: //depot/dev/client3/rdock/2013.1/src/exe/rbdock.cxx#4 $)

>  <Rbt.Library>
libRbt.so (2013.1, Build901 2013/11/27)

>  <Rbt.Parameter_File>
/export/apps/rDock/src/rDock_2013.1_src/data/scripts/dock_solv.prm

>  <Rbt.Receptor>
prm/pocket_docking_2.prm

>  <SCORE>
-9.96543

>  <SCORE.INTER>
-8.14133

>  <SCORE.INTER.CONST>
1

>  <SCORE.INTER.POLAR>
0

>  <SCORE.INTER.ROT>
7

>  <SCORE.INTER.SOLV>
21.6962

>  <SCORE.INTER.VDW>
-20.9263

>  <SCORE.INTER.norm>
-0.301531

>  <SCORE.INTRA>
-2.22811

>  <SCORE.INTRA.DIHEDRAL>
-3.33838

>  <SCORE.INTRA.DIHEDRAL.0>
13.9704

>  <SCORE.INTRA.POLAR>
0

>  <SCORE.INTRA.POLAR.0>
0

>  <SCORE.INTRA.REPUL>
0.0112453

>  <SCORE.INTRA.REPUL.0>
0

>  <SCORE.INTRA.SOLV>
2.47766

>  <SCORE.INTRA.SOLV.lig_0>
-70.9758

>  <SCORE.INTRA.VDW>
-1.85398

>  <SCORE.INTRA.VDW.0>
-2.70686

>  <SCORE.INTRA.norm>
-0.0825225

>  <SCORE.RESTR>
0.404005

>  <SCORE.RESTR.CAVITY>
0.404005

>  <SCORE.RESTR.norm>
0.0149632

>  <SCORE.SYSTEM>
0

>  <SCORE.SYSTEM.CONST>
0

>  <SCORE.SYSTEM.DIHEDRAL>
0

>  <SCORE.SYSTEM.SOLV>
0

>  <SCORE.SYSTEM.norm>
0

>  <SCORE.heavy>
27

>  <SCORE.norm>
-0.36909

>  <RMSD>
1.346

$$$$
ligand
 OpenBabel11021811473D
libRbt.so/2013.1/901 2013/11/27
 27 29  0  0  0  0  0  0  0  0999 V2000
   49.0906   56.7279   27.0117 N   0  0  0  0  0  0  0  0  0  0  0  0
   47.6719   56.6539   27.3536 C   0  0  2  0  0  0  0  0  0  0  0  0
   46.8938   57.9387   27.0620 C   0  0  0  0  0  0  0  0  0  0  0  0
   47.0659   58.4858   26.0237 O   0  0  0  0  0  0  0  0  0  0  0  0
   47.3772   56.0768   28.7540 C   0  0  0  0  0  0  0  0  0  0  0  0
   48.0582   54.7504   29.1922 C   0  0  0  0  0  0  0  0  0  0  0  0
   49.5832   54.8350   29.4673 C   0  0  2  0  0  0  0  0  0  0  0  0
   50.3925   54.4986   28.2960 N   0  0  0  0  0  0  0  0  0  0  0  0
   49.9960   54.0416   30.7454 C   0  0  0  0  0  0  0  0  0  0  0  0
   49.4130   54.4933   32.1268 C   0  0  1  0  0  0  0  0  0  0  0  0
   49.8664   55.7499   32.7121 O   0  0  0  0  0  0  0  0  0  0  0  0
   47.8646   54.5417   32.2529 C   0  0  1  0  0  0  0  0  0  0  0  0
   47.1487   53.3014   32.1872 O   0  0  0  0  0  0  0  0  0  0  0  0
   47.5811   55.5238   33.4316 C   0  0  1  0  0  0  0  0  0  0  0  0
   47.0794   54.9883   34.6326 O   0  0  0  0  0  0  0  0  0  0  0  0
   48.8544   56.3745   33.4759 C   0  0  2  0  0  0  0  0  0  0  0  0
   45.6933   58.1697   27.7629 O   0  0  0  0  0  0  0  0  0  0  0  0
   45.1843   60.0900   31.9883 N   0  0  0  0  0  0  0  0  0  0  0  0
   44.9461   58.7686   32.3833 C   0  0  0  0  0  0  0  0  0  0  0  0
   46.0637   57.9026   32.7522 N   0  0  0  0  0  0  0  0  0  0  0  0
   47.3459   58.3819   32.7140 C   0  0  0  0  0  0  0  0  0  0  0  0
   47.5769   59.7125   32.3135 C   0  0  0  0  0  0  0  0  0  0  0  0
   46.4627   60.5747   31.9453 C   0  0  0  0  0  0  0  0  0  0  0  0
   46.7007   61.9575   31.5299 N   0  0  0  0  0  0  0  0  0  0  0  0
   48.9988   59.9512   32.3619 N   0  0  0  0  0  0  0  0  0  0  0  0
   49.6222   58.7559   32.7912 C   0  0  0  0  0  0  0  0  0  0  0  0
   48.6154   57.7732   33.0162 N   0  0  0  0  0  0  0  0  0  0  0  0
  2  1  1  1  0  0  0
  2  3  1  0  0  0  0
  2  5  1  0  0  0  0
  3  4  1  0  0  0  0
  3 17  1  0  0  0  0
  5  6  1  0  0  0  0
  7  6  1  6  0  0  0
  7  8  1  0  0  0  0
  7  9  1  0  0  0  0
 10  9  1  6  0  0  0
 10 11  1  0  0  0  0
 10 12  1  0  0  0  0
 11 16  1  0  0  0  0
 12 13  1  1  0  0  0
 12 14  1  0  0  0  0
 14 15  1  1  0  0  0
 14 16  1  0  0  0  0
 16 27  1  6  0  0  0
 18 19  2  0  0  0  0
 18 23  1  0  0  0  0
 19 20  1  0  0  0  0
 20 21  2  0  0  0  0
 21 22  1  0  0  0  0
 21 27  1  0  0  0  0
 22 23  2  0  0  0  0
 22 25  1  0  0  0  0
 23 24  1  0  0  0  0
 25 26  2  0  0  0  0
 26 27  1  0  0  0  0
M  END
>  <CHROM.1>
45.22448901,-48.84046316,70.60770338,-93.03698352,-62.62431167,-70.22831859
130.81656269,47.81691344,57.01556240,30.93016968,0.85037695,1.15623268,-1.57786082

>  <Name>
ligand

>  <RI>
0

>  <Rbt.Current_Directory>
/home/itssahil/PROJECTS/Mol_Feturizer/New_Systems/rnas/3GX2

>  <Rbt.Executable>
rbdock ($Id: //depot/dev/client3/rdock/2013.1/src/exe/rbdock.cxx#4 $)

>  <Rbt.Library>
libRbt.so (2013.1, Build901 2013/11/27)

>  <Rbt.Parameter_File>
/export/apps/rDock/src/rDock_2013.1_src/data/scripts/dock_solv.prm

>  <Rbt.Receptor>
prm/pocket_docking_2.prm

>  <SCORE>
-8.31828

>  <SCORE.INTER>
-8.06794

>  <SCORE.INTER.CONST>
1

>  <SCORE.INTER.POLAR>
0

>  <SCORE.INTER.ROT>
7

>  <SCORE.INTER.SOLV>
22.4449

>  <SCORE.INTER.VDW>
-21.1269

>  <SCORE.INTER.norm>
-0.298813

>  <SCORE.INTRA>
-0.267135

>  <SCORE.INTRA.DIHEDRAL>
-4.85619

>  <SCORE.INTRA.DIHEDRAL.0>
13.9704

>  <SCORE.INTRA.POLAR>
0

>  <SCORE.INTRA.POLAR.0>
0

>  <SCORE.INTRA.REPUL>
0

>  <SCORE.INTRA.REPUL.0>
0

>  <SCORE.INTRA.SOLV>
3.61585

>  <SCORE.INTRA.SOLV.lig_0>
-70.9758

>  <SCORE.INTRA.VDW>
0.353037

>  <SCORE.INTRA.VDW.0>
-2.70686

>  <SCORE.INTRA.norm>
-0.00989389

>  <SCORE.RESTR>
0.0167983

>  <SCORE.RESTR.CAVITY>
0.0167983

>  <SCORE.RESTR.norm>
0.00062216

>  <SCORE.SYSTEM>
0

>  <SCORE.SYSTEM.CONST>
0

>  <SCORE.SYSTEM.DIHEDRAL>
0

>  <SCORE.SYSTEM.SOLV>
0

>  <SCORE.SYSTEM.norm>
0

>  <SCORE.heavy>
27

>  <SCORE.norm>
-0.308084

>  <RMSD>
1.351

$$$$
ligand
 OpenBabel11021811473D
libRbt.so/2013.1/901 2013/11/27
 27 29  0  0  0  0  0  0  0  0999 V2000
   48.5857   56.5549   25.8371 N   0  0  0  0  0  0  0  0  0  0  0  0
   48.5765   56.6565   27.2947 C   0  0  2  0  0  0  0  0  0  0  0  0
   48.1336   58.0236   27.8203 C   0  0  0  0  0  0  0  0  0  0  0  0
   47.0098   58.3626   27.6501 O   0  0  0  0  0  0  0  0  0  0  0  0
   49.8535   56.1318   27.9840 C   0  0  0  0  0  0  0  0  0  0  0  0
   49.8198   55.7973   29.5013 C   0  0  0  0  0  0  0  0  0  0  0  0
   48.8035   54.7048   29.9279 C   0  0  2  0  0  0  0  0  0  0  0  0
   47.4526   55.2300   30.1258 N   0  0  0  0  0  0  0  0  0  0  0  0
   49.3166   53.8630   31.1368 C   0  0  0  0  0  0  0  0  0  0  0  0
   49.4948   54.5735   32.5209 C   0  0  1  0  0  0  0  0  0  0  0  0
   50.1157   55.8924   32.5671 O   0  0  0  0  0  0  0  0  0  0  0  0
   48.2261   54.7094   33.4084 C   0  0  1  0  0  0  0  0  0  0  0  0
   47.6433   53.5084   33.9312 O   0  0  0  0  0  0  0  0  0  0  0  0
   48.5304   55.8934   34.3777 C   0  0  1  0  0  0  0  0  0  0  0  0
   48.7390   55.5978   35.7379 O   0  0  0  0  0  0  0  0  0  0  0  0
   49.6018   56.6835   33.6197 C   0  0  2  0  0  0  0  0  0  0  0  0
   48.8710   58.6105   28.8679 O   0  0  0  0  0  0  0  0  0  0  0  0
   45.2506   59.5712   32.1311 N   0  0  0  0  0  0  0  0  0  0  0  0
   45.2790   58.2487   32.5884 C   0  0  0  0  0  0  0  0  0  0  0  0
   46.5512   57.6258   32.9470 N   0  0  0  0  0  0  0  0  0  0  0  0
   47.7179   58.3345   32.8383 C   0  0  0  0  0  0  0  0  0  0  0  0
   47.6806   59.6644   32.3755 C   0  0  0  0  0  0  0  0  0  0  0  0
   46.4125   60.2843   32.0175 C   0  0  0  0  0  0  0  0  0  0  0  0
   46.3716   61.6660   31.5374 N   0  0  0  0  0  0  0  0  0  0  0  0
   49.0325   60.1673   32.3572 N   0  0  0  0  0  0  0  0  0  0  0  0
   49.8838   59.1316   32.8092 C   0  0  0  0  0  0  0  0  0  0  0  0
   49.0884   57.9894   33.1139 N   0  0  0  0  0  0  0  0  0  0  0  0
  2  1  1  6  0  0  0
  2  3  1  0  0  0  0
  2  5  1  0  0  0  0
  3  4  1  0  0  0  0
  3 17  1  0  0  0  0
  5  6  1  0  0  0  0
  7  6  1  1  0  0  0
  7  8  1  0  0  0  0
  7  9  1  0  0  0  0
 10  9  1  6  0  0  0
 10 11  1  0  0  0  0
 10 12  1  0  0  0  0
 11 16  1  0  0  0  0
 12 13  1  1  0  0  0
 12 14  1  0  0  0  0
 14 15  1  1  0  0  0
 14 16  1  0  0  0  0
 16 27  1  6  0  0  0
 18 19  2  0  0  0  0
 18 23  1  0  0  0  0
 19 20  1  0  0  0  0
 20 21  2  0  0  0  0
 21 22  1  0  0  0  0
 21 27  1  0  0  0  0
 22 23  2  0  0  0  0
 22 25  1  0  0  0  0
 23 24  1  0  0  0  0
 25 26  2  0  0  0  0
 26 27  1  0  0  0  0
M  END
>  <CHROM.1>
67.04080991,-162.32300825,59.93246985,-83.48270415,65.97574712,-43.58860040
99.22609212,48.24293098,57.11565092,31.35181629,-1.60493681,-1.17900835,1.75681033

>  <Name>
ligand

>  <RI>
0

>  <Rbt.Current_Directory>
/home/itssahil/PROJECTS/Mol_Feturizer/New_Systems/rnas/3GX2

>  <Rbt.Executable>
rbdock ($Id: //depot/dev/client3/rdock/2013.1/src/exe/rbdock.cxx#4 $)

>  <Rbt.Library>
libRbt.so (2013.1, Build901 2013/11/27)

>  <Rbt.Parameter_File>
/export/apps/rDock/src/rDock_2013.1_src/data/scripts/dock_solv.prm

>  <Rbt.Receptor>
prm/pocket_docking_3.prm

>  <SCORE>
-13.5221

>  <SCORE.INTER>
-11.9402

>  <SCORE.INTER.CONST>
1

>  <SCORE.INTER.POLAR>
0

>  <SCORE.INTER.ROT>
7

>  <SCORE.INTER.SOLV>
21.9869

>  <SCORE.INTER.VDW>
-23.5558

>  <SCORE.INTER.norm>
-0.442231

>  <SCORE.INTRA>
-1.58484

>  <SCORE.INTRA.DIHEDRAL>
-5.60608

>  <SCORE.INTRA.DIHEDRAL.0>
13.9704

>  <SCORE.INTRA.POLAR>
0

>  <SCORE.INTRA.POLAR.0>
0

>  <SCORE.INTRA.REPUL>
0

>  <SCORE.INTRA.REPUL.0>
0

>  <SCORE.INTRA.SOLV>
3.72968

>  <SCORE.INTRA.SOLV.lig_0>
-70.9758

>  <SCORE.INTRA.VDW>
-0.646638

>  <SCORE.INTRA.VDW.0>
-2.70686

>  <SCORE.INTRA.norm>
-0.0586976

>  <SCORE.RESTR>
0.0029505

>  <SCORE.RESTR.CAVITY>
0.0029505

>  <SCORE.RESTR.norm>
0.000109278

>  <SCORE.SYSTEM>
0

>  <SCORE.SYSTEM.CONST>
0

>  <SCORE.SYSTEM.DIHEDRAL>
0

>  <SCORE.SYSTEM.SOLV>
0

>  <SCORE.SYSTEM.norm>
0

>  <SCORE.heavy>
27

>  <SCORE.norm>
-0.50082

>  <RMSD>
1.351

$$$$
ligand
 OpenBabel11021811473D
libRbt.so/2013.1/901 2013/11/27
 27 29  0  0  0  0  0  0  0  0999 V2000
   50.4796   56.0654   27.9148 N   0  0  0  0  0  0  0  0  0  0  0  0
   49.1072   56.5560   27.8114 C   0  0  2  0  0  0  0  0  0  0  0  0
   48.8824   57.9189   28.4694 C   0  0  0  0  0  0  0  0  0  0  0  0
   48.2408   58.7319   27.8913 O   0  0  0  0  0  0  0  0  0  0  0  0
   48.0247   55.5216   28.1851 C   0  0  0  0  0  0  0  0  0  0  0  0
   48.0496   54.8651   29.5935 C   0  0  0  0  0  0  0  0  0  0  0  0
   49.4356   54.3623   30.0780 C   0  0  2  0  0  0  0  0  0  0  0  0
   50.2318   53.7661   29.0054 N   0  0  0  0  0  0  0  0  0  0  0  0
   49.3233   53.4490   31.3376 C   0  0  0  0  0  0  0  0  0  0  0  0
   49.1964   54.1265   32.7437 C   0  0  1  0  0  0  0  0  0  0  0  0
   49.8411   55.4148   32.9718 O   0  0  0  0  0  0  0  0  0  0  0  0
   47.7599   54.3047   33.3097 C   0  0  1  0  0  0  0  0  0  0  0  0
   47.0219   53.1226   33.6466 O   0  0  0  0  0  0  0  0  0  0  0  0
   47.8728   55.4566   34.3558 C   0  0  1  0  0  0  0  0  0  0  0  0
   47.7407   55.1283   35.7180 O   0  0  0  0  0  0  0  0  0  0  0  0
   49.1244   56.2101   33.8946 C   0  0  2  0  0  0  0  0  0  0  0  0
   49.0014   58.0153   29.8702 O   0  0  0  0  0  0  0  0  0  0  0  0
   45.2323   59.5391   32.0898 N   0  0  0  0  0  0  0  0  0  0  0  0
   45.0775   58.2428   32.5943 C   0  0  0  0  0  0  0  0  0  0  0  0
   46.2461   57.4859   33.0377 N   0  0  0  0  0  0  0  0  0  0  0  0
   47.4946   58.0433   32.9624 C   0  0  0  0  0  0  0  0  0  0  0  0
   47.6418   59.3477   32.4517 C   0  0  0  0  0  0  0  0  0  0  0  0
   46.4768   60.1012   32.0093 C   0  0  0  0  0  0  0  0  0  0  0  0
   46.6276   61.4568   31.4793 N   0  0  0  0  0  0  0  0  0  0  0  0
   49.0446   59.6823   32.4833 N   0  0  0  0  0  0  0  0  0  0  0  0
   49.7410   58.5708   33.0134 C   0  0  0  0  0  0  0  0  0  0  0  0
   48.7985   57.5466   33.3180 N   0  0  0  0  0  0  0  0  0  0  0  0
  2  1  1  1  0  0  0
  2  3  1  0  0  0  0
  2  5  1  0  0  0  0
  3  4  1  0  0  0  0
  3 17  1  0  0  0  0
  5  6  1  0  0  0  0
  7  6  1  6  0  0  0
  7  8  1  0  0  0  0
  7  9  1  0  0  0  0
 10  9  1  6  0  0  0
 10 11  1  0  0  0  0
 10 12  1  0  0  0  0
 11 16  1  0  0  0  0
 12 13  1  1  0  0  0
 12 14  1  0  0  0  0
 14 15  1  1  0  0  0
 14 16  1  0  0  0  0
 16 27  1  6  0  0  0
 18 19  2  0  0  0  0
 18 23  1  0  0  0  0
 19 20  1  0  0  0  0
 20 21  2  0  0  0  0
 21 22  1  0  0  0  0
 21 27  1  0  0  0  0
 22 23  2  0  0  0  0
 22 25  1  0  0  0  0
 23 24  1  0  0  0  0
 25 26  2  0  0  0  0
 26 27  1  0  0  0  0
M  END
>  <CHROM.1>
136.09830833,57.46993784,-45.80404633,-38.14504951,-82.05123374,-31.38774133
111.58229550,48.23041449,56.72661168,31.54897762,-0.20458721,1.14875013,-0.85939714

>  <Name>
ligand

>  <RI>
0

>  <Rbt.Current_Directory>
/home/itssahil/PROJECTS/Mol_Feturizer/New_Systems/rnas/3GX2

>  <Rbt.Executable>
rbdock ($Id: //depot/dev/client3/rdock/2013.1/src/exe/rbdock.cxx#4 $)

>  <Rbt.Library>
libRbt.so (2013.1, Build901 2013/11/27)

>  <Rbt.Parameter_File>
/export/apps/rDock/src/rDock_2013.1_src/data/scripts/dock_solv.prm

>  <Rbt.Receptor>
prm/pocket_docking_2.prm

>  <SCORE>
-8.71823

>  <SCORE.INTER>
-9.6531

>  <SCORE.INTER.CONST>
1

>  <SCORE.INTER.POLAR>
0

>  <SCORE.INTER.ROT>
7

>  <SCORE.INTER.SOLV>
19.9861

>  <SCORE.INTER.VDW>
-21.3641

>  <SCORE.INTER.norm>
-0.357522

>  <SCORE.INTRA>
0.762913

>  <SCORE.INTRA.DIHEDRAL>
-2.46753

>  <SCORE.INTRA.DIHEDRAL.0>
13.9704

>  <SCORE.INTRA.POLAR>
0

>  <SCORE.INTRA.POLAR.0>
0

>  <SCORE.INTRA.REPUL>
0

>  <SCORE.INTRA.REPUL.0>
0

>  <SCORE.INTRA.SOLV>
5.43756

>  <SCORE.INTRA.SOLV.lig_0>
-70.9758

>  <SCORE.INTRA.VDW>
-0.722105

>  <SCORE.INTRA.VDW.0>
-2.70686

>  <SCORE.INTRA.norm>
0.028256

>  <SCORE.RESTR>
0.17196

>  <SCORE.RESTR.CAVITY>
0.17196

>  <SCORE.RESTR.norm>
0.00636888

>  <SCORE.SYSTEM>
0

>  <SCORE.SYSTEM.CONST>
0

>  <SCORE.SYSTEM.DIHEDRAL>
0

>  <SCORE.SYSTEM.SOLV>
0

>  <SCORE.SYSTEM.norm>
0

>  <SCORE.heavy>
27

>  <SCORE.norm>
-0.322897

>  <RMSD>
1.366

$$$$
ligand
 OpenBabel11021811473D
libRbt.so/2013.1/901 2013/11/27
 27 29  0  0  0  0  0  0  0  0999 V2000
   49.6787   57.0600   27.6907 N   0  0  0  0  0  0  0  0  0  0  0  0
   48.4834   56.7494   28.4716 C   0  0  2  0  0  0  0  0  0  0  0  0
   48.0759   57.8524   29.4507 C   0  0  0  0  0  0  0  0  0  0  0  0
   47.0158   57.7830   29.9781 O   0  0  0  0  0  0  0  0  0  0  0  0
   48.4803   55.3454   29.1117 C   0  0  0  0  0  0  0  0  0  0  0  0
   49.7301   54.8622   29.8990 C   0  0  0  0  0  0  0  0  0  0  0  0
   49.5985   53.4780   30.5883 C   0  0  2  0  0  0  0  0  0  0  0  0
   49.1988   52.4172   29.6637 N   0  0  0  0  0  0  0  0  0  0  0  0
   48.7111   53.5402   31.8697 C   0  0  0  0  0  0  0  0  0  0  0  0
   49.2414   54.3378   33.1086 C   0  0  1  0  0  0  0  0  0  0  0  0
   49.9129   55.6150   32.8963 O   0  0  0  0  0  0  0  0  0  0  0  0
   48.2245   54.6181   34.2503 C   0  0  1  0  0  0  0  0  0  0  0  0
   47.7290   53.4978   34.9950 O   0  0  0  0  0  0  0  0  0  0  0  0
   48.8003   55.8486   35.0173 C   0  0  1  0  0  0  0  0  0  0  0  0
   49.3101   55.6412   36.3126 O   0  0  0  0  0  0  0  0  0  0  0  0
   49.6967   56.5120   33.9670 C   0  0  2  0  0  0  0  0  0  0  0  0
   49.0907   58.6175   30.0594 O   0  0  0  0  0  0  0  0  0  0  0  0
   45.3124   59.1599   32.1631 N   0  0  0  0  0  0  0  0  0  0  0  0
   45.3988   57.8155   32.5426 C   0  0  0  0  0  0  0  0  0  0  0  0
   46.6709   57.2667   33.0070 N   0  0  0  0  0  0  0  0  0  0  0  0
   47.7806   58.0663   33.0735 C   0  0  0  0  0  0  0  0  0  0  0  0
   47.6854   59.4177   32.6878 C   0  0  0  0  0  0  0  0  0  0  0  0
   46.4175   59.9638   32.2245 C   0  0  0  0  0  0  0  0  0  0  0  0
   46.3164   61.3677   31.8243 N   0  0  0  0  0  0  0  0  0  0  0  0
   48.9856   60.0203   32.8533 N   0  0  0  0  0  0  0  0  0  0  0  0
   49.8643   59.0232   33.3381 C   0  0  0  0  0  0  0  0  0  0  0  0
   49.1365   57.8069   33.4829 N   0  0  0  0  0  0  0  0  0  0  0  0
  2  1  1  1  0  0  0
  2  3  1  0  0  0  0
  2  5  1  0  0  0  0
  3  4  1  0  0  0  0
  3 17  1  0  0  0  0
  5  6  1  0  0  0  0
  7  6  1  6  0  0  0
  7  8  1  0  0  0  0
  7  9  1  0  0  0  0
 10  9  1  6  0  0  0
 10 11  1  0  0  0  0
 10 12  1  0  0  0  0
 11 16  1  0  0  0  0
 12 13  1  1  0  0  0
 12 14  1  0  0  0  0
 14 15  1  1  0  0  0
 14 16  1  0  0  0  0
 16 27  1  6  0  0  0
 18 19  2  0  0  0  0
 18 23  1  0  0  0  0
 19 20  1  0  0  0  0
 20 21  2  0  0  0  0
 21 22  1  0  0  0  0
 21 27  1  0  0  0  0
 22 23  2  0  0  0  0
 22 25  1  0  0  0  0
 23 24  1  0  0  0  0
 25 26  2  0  0  0  0
 26 27  1  0  0  0  0
M  END
>  <CHROM.1>
168.75606556,48.37726186,175.98146611,54.36858938,-67.45822717,41.01607450
76.36519266,48.33802649,56.75406146,32.01931372,-2.88932047,-1.22812770,1.72724766

>  <Name>
ligand

>  <RI>
0

>  <Rbt.Current_Directory>
/home/itssahil/PROJECTS/Mol_Feturizer/New_Systems/rnas/3GX2

>  <Rbt.Executable>
rbdock ($Id: //depot/dev/client3/rdock/2013.1/src/exe/rbdock.cxx#4 $)

>  <Rbt.Library>
libRbt.so (2013.1, Build901 2013/11/27)

>  <Rbt.Parameter_File>
/export/apps/rDock/src/rDock_2013.1_src/data/scripts/dock_solv.prm

>  <Rbt.Receptor>
prm/pocket_docking_4.prm

>  <SCORE>
-15.4566

>  <SCORE.INTER>
-10.1616

>  <SCORE.INTER.CONST>
1

>  <SCORE.INTER.POLAR>
0

>  <SCORE.INTER.ROT>
7

>  <SCORE.INTER.SOLV>
22.8215

>  <SCORE.INTER.VDW>
-22.6482

>  <SCORE.INTER.norm>
-0.376355

>  <SCORE.INTRA>
-5.29501

>  <SCORE.INTRA.DIHEDRAL>
-7.19219

>  <SCORE.INTRA.DIHEDRAL.0>
13.9704

>  <SCORE.INTRA.POLAR>
0

>  <SCORE.INTRA.POLAR.0>
0

>  <SCORE.INTRA.REPUL>
0

>  <SCORE.INTRA.REPUL.0>
0

>  <SCORE.INTRA.SOLV>
1.62939

>  <SCORE.INTRA.SOLV.lig_0>
-70.9758

>  <SCORE.INTRA.VDW>
-2.5136

>  <SCORE.INTRA.VDW.0>
-2.70686

>  <SCORE.INTRA.norm>
-0.196111

>  <SCORE.RESTR>
0

>  <SCORE.RESTR.CAVITY>
0

>  <SCORE.RESTR.norm>
0

>  <SCORE.SYSTEM>
0

>  <SCORE.SYSTEM.CONST>
0

>  <SCORE.SYSTEM.DIHEDRAL>
0

>  <SCORE.SYSTEM.SOLV>
0

>  <SCORE.SYSTEM.norm>
0

>  <SCORE.heavy>
27

>  <SCORE.norm>
-0.572467

>  <RMSD>
1.370

$$$$
ligand
 OpenBabel11021811473D
libRbt.so/2013.1/901 2013/11/27
 27 29  0  0  0  0  0  0  0  0999 V2000
   50.0151   55.0009   27.4203 N   0  0  0  0  0  0  0  0  0  0  0  0
   48.7830   55.6235   27.8989 C   0  0  2  0  0  0  0  0  0  0  0  0
   48.2419   56.7200   26.9790 C   0  0  0  0  0  0  0  0  0  0  0  0
   48.6732   57.8195   27.0881 O   0  0  0  0  0  0  0  0  0  0  0  0
   48.8090   56.0425   29.3838 C   0  0  0  0  0  0  0  0  0  0  0  0
   47.7103   55.5119   30.3464 C   0  0  0  0  0  0  0  0  0  0  0  0
   47.6611   53.9716   30.5288 C   0  0  2  0  0  0  0  0  0  0  0  0
   46.3627   53.4960   31.0063 N   0  0  0  0  0  0  0  0  0  0  0  0
   48.8577   53.4404   31.3768 C   0  0  0  0  0  0  0  0  0  0  0  0
   49.1245   54.0842   32.7792 C   0  0  1  0  0  0  0  0  0  0  0  0
   49.7994   55.3751   32.8509 O   0  0  0  0  0  0  0  0  0  0  0  0
   47.9021   54.2309   33.7280 C   0  0  1  0  0  0  0  0  0  0  0  0
   47.2948   53.0322   34.2273 O   0  0  0  0  0  0  0  0  0  0  0  0
   48.2958   55.3602   34.7298 C   0  0  1  0  0  0  0  0  0  0  0  0
   48.5513   54.9994   36.0660 O   0  0  0  0  0  0  0  0  0  0  0  0
   49.3641   56.1401   33.9569 C   0  0  2  0  0  0  0  0  0  0  0  0
   47.6473   56.3394   25.7595 O   0  0  0  0  0  0  0  0  0  0  0  0
   45.2027   59.0700   32.0634 N   0  0  0  0  0  0  0  0  0  0  0  0
   45.2174   57.7011   32.3545 C   0  0  0  0  0  0  0  0  0  0  0  0
   46.4363   57.0738   32.8602 N   0  0  0  0  0  0  0  0  0  0  0  0
   47.5660   57.8235   33.0521 C   0  0  0  0  0  0  0  0  0  0  0  0
   47.5432   59.2002   32.7549 C   0  0  0  0  0  0  0  0  0  0  0  0
   46.3283   59.8245   32.2502 C   0  0  0  0  0  0  0  0  0  0  0  0
   46.3024   61.2548   31.9418 N   0  0  0  0  0  0  0  0  0  0  0  0
   48.8496   59.7395   33.0438 N   0  0  0  0  0  0  0  0  0  0  0  0
   49.6594   58.6790   33.5141 C   0  0  0  0  0  0  0  0  0  0  0  0
   48.8821   57.4850   33.5283 N   0  0  0  0  0  0  0  0  0  0  0  0
  2  1  1  6  0  0  0
  2  3  1  0  0  0  0
  2  5  1  0  0  0  0
  3  4  1  0  0  0  0
  3 17  1  0  0  0  0
  5  6  1  0  0  0  0
  7  6  1  1  0  0  0
  7  8  1  0  0  0  0
  7  9  1  0  0  0  0
 10  9  1  6  0  0  0
 10 11  1  0  0  0  0
 10 12  1  0  0  0  0
 11 16  1  0  0  0  0
 12 13  1  1  0  0  0
 12 14  1  0  0  0  0
 14 15  1  1  0  0  0
 14 16  1  0  0  0  0
 16 27  1  6  0  0  0
 18 19  2  0  0  0  0
 18 23  1  0  0  0  0
 19 20  1  0  0  0  0
 20 21  2  0  0  0  0
 21 22  1  0  0  0  0
 21 27  1  0  0  0  0
 22 23  2  0  0  0  0
 22 25  1  0  0  0  0
 23 24  1  0  0  0  0
 25 26  2  0  0  0  0
 26 27  1  0  0  0  0
M  END
>  <CHROM.1>
-84.49712297,-124.53143472,61.83650403,-158.42501922,53.09722712,-78.56134890
84.71689576,47.98679537,56.42314388,31.56968830,-1.35933373,-1.31720394,1.76531181

>  <Name>
ligand

>  <RI>
0

>  <Rbt.Current_Directory>
/home/itssahil/PROJECTS/Mol_Feturizer/New_Systems/rnas/3GX2

>  <Rbt.Executable>
rbdock ($Id: //depot/dev/client3/rdock/2013.1/src/exe/rbdock.cxx#4 $)

>  <Rbt.Library>
libRbt.so (2013.1, Build901 2013/11/27)

>  <Rbt.Parameter_File>
/export/apps/rDock/src/rDock_2013.1_src/data/scripts/dock_solv.prm

>  <Rbt.Receptor>
prm/pocket_docking_2.prm

>  <SCORE>
-9.25199

>  <SCORE.INTER>
-8.37067

>  <SCORE.INTER.CONST>
1

>  <SCORE.INTER.POLAR>
0

>  <SCORE.INTER.ROT>
7

>  <SCORE.INTER.SOLV>
17.8937

>  <SCORE.INTER.VDW>
-19.8117

>  <SCORE.INTER.norm>
-0.310025

>  <SCORE.INTRA>
-0.941143

>  <SCORE.INTRA.DIHEDRAL>
-1.46011

>  <SCORE.INTRA.DIHEDRAL.0>
13.9704

>  <SCORE.INTRA.POLAR>
0

>  <SCORE.INTRA.POLAR.0>
0

>  <SCORE.INTRA.REPUL>
0

>  <SCORE.INTRA.REPUL.0>
0

>  <SCORE.INTRA.SOLV>
2.21655

>  <SCORE.INTRA.SOLV.lig_0>
-70.9758

>  <SCORE.INTRA.VDW>
-1.31937

>  <SCORE.INTRA.VDW.0>
-2.70686

>  <SCORE.INTRA.norm>
-0.0348572

>  <SCORE.RESTR>
0.0598277

>  <SCORE.RESTR.CAVITY>
0.0598277

>  <SCORE.RESTR.norm>
0.00221584

>  <SCORE.SYSTEM>
0

>  <SCORE.SYSTEM.CONST>
0

>  <SCORE.SYSTEM.DIHEDRAL>
0

>  <SCORE.SYSTEM.SOLV>
0

>  <SCORE.SYSTEM.norm>
0

>  <SCORE.heavy>
27

>  <SCORE.norm>
-0.342666

>  <RMSD>
1.380

$$$$
ligand
 OpenBabel11021811473D
libRbt.so/2013.1/901 2013/11/27
 27 29  0  0  0  0  0  0  0  0999 V2000
   46.9587   58.6861   28.7970 N   0  0  0  0  0  0  0  0  0  0  0  0
   47.7699   58.0922   27.7368 C   0  0  2  0  0  0  0  0  0  0  0  0
   46.9728   57.2405   26.7466 C   0  0  0  0  0  0  0  0  0  0  0  0
   47.5029   56.8820   25.7479 O   0  0  0  0  0  0  0  0  0  0  0  0
   49.0589   57.3986   28.2254 C   0  0  0  0  0  0  0  0  0  0  0  0
   48.9554   56.2015   29.2110 C   0  0  0  0  0  0  0  0  0  0  0  0
   50.2891   55.4757   29.5318 C   0  0  2  0  0  0  0  0  0  0  0  0
   50.9774   54.9938   28.3343 N   0  0  0  0  0  0  0  0  0  0  0  0
   50.1126   54.3741   30.6220 C   0  0  0  0  0  0  0  0  0  0  0  0
   49.6636   54.8082   32.0581 C   0  0  1  0  0  0  0  0  0  0  0  0
   50.1182   56.0890   32.5872 O   0  0  0  0  0  0  0  0  0  0  0  0
   48.1378   54.7848   32.3532 C   0  0  1  0  0  0  0  0  0  0  0  0
   47.4787   53.5118   32.3693 O   0  0  0  0  0  0  0  0  0  0  0  0
   47.9388   55.7613   33.5536 C   0  0  1  0  0  0  0  0  0  0  0  0
   47.5977   55.2118   34.8036 O   0  0  0  0  0  0  0  0  0  0  0  0
   49.1674   56.6711   33.4561 C   0  0  2  0  0  0  0  0  0  0  0  0
   45.8624   56.5174   27.2258 O   0  0  0  0  0  0  0  0  0  0  0  0
   45.2024   60.0967   32.0310 N   0  0  0  0  0  0  0  0  0  0  0  0
   45.0745   58.7529   32.4007 C   0  0  0  0  0  0  0  0  0  0  0  0
   46.2599   57.9758   32.7555 N   0  0  0  0  0  0  0  0  0  0  0  0
   47.4979   58.5605   32.7289 C   0  0  0  0  0  0  0  0  0  0  0  0
   47.6179   59.9129   32.3539 C   0  0  0  0  0  0  0  0  0  0  0  0
   46.4362   60.6866   31.9997 C   0  0  0  0  0  0  0  0  0  0  0  0
   46.5588   62.0919   31.6108 N   0  0  0  0  0  0  0  0  0  0  0  0
   49.0150   60.2678   32.4096 N   0  0  0  0  0  0  0  0  0  0  0  0
   49.7353   59.1205   32.8177 C   0  0  0  0  0  0  0  0  0  0  0  0
   48.8134   58.0536   33.0222 N   0  0  0  0  0  0  0  0  0  0  0  0
  2  1  1  1  0  0  0
  2  3  1  0  0  0  0
  2  5  1  0  0  0  0
  3  4  1  0  0  0  0
  3 17  1  0  0  0  0
  5  6  1  0  0  0  0
  7  6  1  6  0  0  0
  7  8  1  0  0  0  0
  7  9  1  0  0  0  0
 10  9  1  6  0  0  0
 10 11  1  0  0  0  0
 10 12  1  0  0  0  0
 11 16  1  0  0  0  0
 12 13  1  1  0  0  0
 12 14  1  0  0  0  0
 14 15  1  1  0  0  0
 14 16  1  0  0  0  0
 16 27  1  6  0  0  0
 18 19  2  0  0  0  0
 18 23  1  0  0  0  0
 19 20  1  0  0  0  0
 20 21  2  0  0  0  0
 21 22  1  0  0  0  0
 21 27  1  0  0  0  0
 22 23  2  0  0  0  0
 22 25  1  0  0  0  0
 23 24  1  0  0  0  0
 25 26  2  0  0  0  0
 26 27  1  0  0  0  0
M  END
>  <CHROM.1>
169.01161981,60.58871706,173.92497095,-55.86468182,-63.20471144,-34.25166342
123.99167497,48.03075171,57.26289649,30.97096485,1.23541200,1.08322717,-1.67409644

>  <Name>
ligand

>  <RI>
0

>  <Rbt.Current_Directory>
/home/itssahil/PROJECTS/Mol_Feturizer/New_Systems/rnas/3GX2

>  <Rbt.Executable>
rbdock ($Id: //depot/dev/client3/rdock/2013.1/src/exe/rbdock.cxx#4 $)

>  <Rbt.Library>
libRbt.so (2013.1, Build901 2013/11/27)

>  <Rbt.Parameter_File>
/export/apps/rDock/src/rDock_2013.1_src/data/scripts/dock_solv.prm

>  <Rbt.Receptor>
prm/pocket_docking_3.prm

>  <SCORE>
-15.2261

>  <SCORE.INTER>
-11.695

>  <SCORE.INTER.CONST>
1

>  <SCORE.INTER.POLAR>
0

>  <SCORE.INTER.ROT>
7

>  <SCORE.INTER.SOLV>
23.7362

>  <SCORE.INTER.VDW>
-23.9754

>  <SCORE.INTER.norm>
-0.433148

>  <SCORE.INTRA>
-3.53111

>  <SCORE.INTRA.DIHEDRAL>
-6.8404

>  <SCORE.INTRA.DIHEDRAL.0>
13.9704

>  <SCORE.INTRA.POLAR>
0

>  <SCORE.INTRA.POLAR.0>
0

>  <SCORE.INTRA.REPUL>
0

>  <SCORE.INTRA.REPUL.0>
0

>  <SCORE.INTRA.SOLV>
0.707765

>  <SCORE.INTRA.SOLV.lig_0>
-70.9758

>  <SCORE.INTRA.VDW>
-0.46479

>  <SCORE.INTRA.VDW.0>
-2.70686

>  <SCORE.INTRA.norm>
-0.130782

>  <SCORE.RESTR>
0

>  <SCORE.RESTR.CAVITY>
0

>  <SCORE.RESTR.norm>
0

>  <SCORE.SYSTEM>
0

>  <SCORE.SYSTEM.CONST>
0

>  <SCORE.SYSTEM.DIHEDRAL>
0

>  <SCORE.SYSTEM.SOLV>
0

>  <SCORE.SYSTEM.norm>
0

>  <SCORE.heavy>
27

>  <SCORE.norm>
-0.563929

>  <RMSD>
1.386

$$$$
ligand
 OpenBabel11021811473D
libRbt.so/2013.1/901 2013/11/27
 27 29  0  0  0  0  0  0  0  0999 V2000
   48.9685   55.4450   26.9856 N   0  0  0  0  0  0  0  0  0  0  0  0
   47.7924   55.8593   27.7472 C   0  0  2  0  0  0  0  0  0  0  0  0
   46.7909   56.6904   26.9424 C   0  0  0  0  0  0  0  0  0  0  0  0
   45.7907   57.0463   27.4712 O   0  0  0  0  0  0  0  0  0  0  0  0
   48.1037   56.4670   29.1310 C   0  0  0  0  0  0  0  0  0  0  0  0
   48.7707   55.5825   30.2210 C   0  0  0  0  0  0  0  0  0  0  0  0
   47.9529   54.3451   30.6778 C   0  0  2  0  0  0  0  0  0  0  0  0
   46.5806   54.6787   31.0593 N   0  0  0  0  0  0  0  0  0  0  0  0
   48.7038   53.5099   31.7603 C   0  0  0  0  0  0  0  0  0  0  0  0
   49.1658   54.2292   33.0724 C   0  0  1  0  0  0  0  0  0  0  0  0
   49.9654   55.4448   32.9718 O   0  0  0  0  0  0  0  0  0  0  0  0
   48.0608   54.5750   34.1094 C   0  0  1  0  0  0  0  0  0  0  0  0
   47.3923   53.4880   34.7626 O   0  0  0  0  0  0  0  0  0  0  0  0
   48.6564   55.7315   34.9707 C   0  0  1  0  0  0  0  0  0  0  0  0
   49.0043   55.4507   36.3052 O   0  0  0  0  0  0  0  0  0  0  0  0
   49.7148   56.3341   34.0415 C   0  0  2  0  0  0  0  0  0  0  0  0
   47.2591   57.4030   25.8205 O   0  0  0  0  0  0  0  0  0  0  0  0
   45.7131   59.4912   32.1690 N   0  0  0  0  0  0  0  0  0  0  0  0
   45.6277   58.1497   32.5587 C   0  0  0  0  0  0  0  0  0  0  0  0
   46.8167   57.4510   33.0415 N   0  0  0  0  0  0  0  0  0  0  0  0
   48.0164   58.1070   33.1154 C   0  0  0  0  0  0  0  0  0  0  0  0
   48.0941   59.4566   32.7194 C   0  0  0  0  0  0  0  0  0  0  0  0
   46.9088   60.1521   32.2377 C   0  0  0  0  0  0  0  0  0  0  0  0
   46.9874   61.5543   31.8267 N   0  0  0  0  0  0  0  0  0  0  0  0
   49.4572   59.8943   32.8957 N   0  0  0  0  0  0  0  0  0  0  0  0
   50.2000   58.7997   33.3975 C   0  0  0  0  0  0  0  0  0  0  0  0
   49.3251   57.6845   33.5422 N   0  0  0  0  0  0  0  0  0  0  0  0
  2  1  1  6  0  0  0
  2  3  1  0  0  0  0
  2  5  1  0  0  0  0
  3  4  1  0  0  0  0
  3 17  1  0  0  0  0
  5  6  1  0  0  0  0
  7  6  1  1  0  0  0
  7  8  1  0  0  0  0
  7  9  1  0  0  0  0
 10  9  1  6  0  0  0
 10 11  1  0  0  0  0
 10 12  1  0  0  0  0
 11 16  1  0  0  0  0
 12 13  1  1  0  0  0
 12 14  1  0  0  0  0
 14 15  1  1  0  0  0
 14 16  1  0  0  0  0
 16 27  1  6  0  0  0
 18 19  2  0  0  0  0
 18 23  1  0  0  0  0
 19 20  1  0  0  0  0
 20 21  2  0  0  0  0
 21 22  1  0  0  0  0
 21 27  1  0  0  0  0
 22 23  2  0  0  0  0
 22 25  1  0  0  0  0
 23 24  1  0  0  0  0
 25 26  2  0  0  0  0
 26 27  1  0  0  0  0
M  END
>  <CHROM.1>
178.35848483,-64.08446718,-61.89064841,-51.33534802,55.96608439,-52.92245411
82.50894767,47.99064199,56.71899709,31.65162287,-2.46058286,-1.30550096,0.78882830

>  <Name>
ligand

>  <RI>
0

>  <Rbt.Current_Directory>
/home/itssahil/PROJECTS/Mol_Feturizer/New_Systems/rnas/3GX2

>  <Rbt.Executable>
rbdock ($Id: //depot/dev/client3/rdock/2013.1/src/exe/rbdock.cxx#4 $)

>  <Rbt.Library>
libRbt.so (2013.1, Build901 2013/11/27)

>  <Rbt.Parameter_File>
/export/apps/rDock/src/rDock_2013.1_src/data/scripts/dock_solv.prm

>  <Rbt.Receptor>
prm/pocket_docking_3.prm

>  <SCORE>
-14.0438

>  <SCORE.INTER>
-10.1773

>  <SCORE.INTER.CONST>
1

>  <SCORE.INTER.POLAR>
0

>  <SCORE.INTER.ROT>
7

>  <SCORE.INTER.SOLV>
19.0299

>  <SCORE.INTER.VDW>
-21.3949

>  <SCORE.INTER.norm>
-0.376939

>  <SCORE.INTRA>
-3.86646

>  <SCORE.INTRA.DIHEDRAL>
-8.85678

>  <SCORE.INTRA.DIHEDRAL.0>
13.9704

>  <SCORE.INTRA.POLAR>
0

>  <SCORE.INTRA.POLAR.0>
0

>  <SCORE.INTRA.REPUL>
0

>  <SCORE.INTRA.REPUL.0>
0

>  <SCORE.INTRA.SOLV>
3.37948

>  <SCORE.INTRA.SOLV.lig_0>
-70.9758

>  <SCORE.INTRA.VDW>
-1.12781

>  <SCORE.INTRA.VDW.0>
-2.70686

>  <SCORE.INTRA.norm>
-0.143202

>  <SCORE.RESTR>
0

>  <SCORE.RESTR.CAVITY>
0

>  <SCORE.RESTR.norm>
0

>  <SCORE.SYSTEM>
0

>  <SCORE.SYSTEM.CONST>
0

>  <SCORE.SYSTEM.DIHEDRAL>
0

>  <SCORE.SYSTEM.SOLV>
0

>  <SCORE.SYSTEM.norm>
0

>  <SCORE.heavy>
27

>  <SCORE.norm>
-0.520141

>  <RMSD>
1.399

$$$$
ligand
 OpenBabel11021811473D
libRbt.so/2013.1/901 2013/11/27
 27 29  0  0  0  0  0  0  0  0999 V2000
   48.9068   56.5201   26.9206 N   0  0  0  0  0  0  0  0  0  0  0  0
   47.7154   56.9748   27.6339 C   0  0  2  0  0  0  0  0  0  0  0  0
   47.9628   58.1657   28.5623 C   0  0  0  0  0  0  0  0  0  0  0  0
   47.4385   58.1774   29.6262 O   0  0  0  0  0  0  0  0  0  0  0  0
   46.8980   55.8500   28.3031 C   0  0  0  0  0  0  0  0  0  0  0  0
   47.4246   55.1982   29.6119 C   0  0  0  0  0  0  0  0  0  0  0  0
   48.9573   54.9641   29.6785 C   0  0  2  0  0  0  0  0  0  0  0  0
   49.5193   54.5068   28.4076 N   0  0  0  0  0  0  0  0  0  0  0  0
   49.3638   54.0651   30.8868 C   0  0  0  0  0  0  0  0  0  0  0  0
   49.5732   54.7401   32.2842 C   0  0  1  0  0  0  0  0  0  0  0  0
   50.2012   56.0548   32.3505 O   0  0  0  0  0  0  0  0  0  0  0  0
   48.3232   54.8593   33.2003 C   0  0  1  0  0  0  0  0  0  0  0  0
   47.7453   53.6483   33.7047 O   0  0  0  0  0  0  0  0  0  0  0  0
   48.6526   56.0176   34.1922 C   0  0  1  0  0  0  0  0  0  0  0  0
   48.8871   55.6873   35.5401 O   0  0  0  0  0  0  0  0  0  0  0  0
   49.7124   56.8217   33.4326 C   0  0  2  0  0  0  0  0  0  0  0  0
   49.1251   58.9382   28.3672 O   0  0  0  0  0  0  0  0  0  0  0  0
   45.3405   59.7863   32.1737 N   0  0  0  0  0  0  0  0  0  0  0  0
   45.3709   58.4562   32.6080 C   0  0  0  0  0  0  0  0  0  0  0  0
   46.6488   57.8120   32.9031 N   0  0  0  0  0  0  0  0  0  0  0  0
   47.8189   58.5082   32.7572 C   0  0  0  0  0  0  0  0  0  0  0  0
   47.7795   59.8459   32.3178 C   0  0  0  0  0  0  0  0  0  0  0  0
   46.5056   60.4870   32.0232 C   0  0  0  0  0  0  0  0  0  0  0  0
   46.4626   61.8770   31.5675 N   0  0  0  0  0  0  0  0  0  0  0  0
   49.1358   60.3326   32.2513 N   0  0  0  0  0  0  0  0  0  0  0  0
   49.9918   59.2793   32.6506 C   0  0  0  0  0  0  0  0  0  0  0  0
   49.1952   58.1419   32.9697 N   0  0  0  0  0  0  0  0  0  0  0  0
  2  1  1  1  0  0  0
  2  3  1  0  0  0  0
  2  5  1  0  0  0  0
  3  4  1  0  0  0  0
  3 17  1  0  0  0  0
  5  6  1  0  0  0  0
  7  6  1  6  0  0  0
  7  8  1  0  0  0  0
  7  9  1  0  0  0  0
 10  9  1  6  0  0  0
 10 11  1  0  0  0  0
 10 12  1  0  0  0  0
 11 16  1  0  0  0  0
 12 13  1  1  0  0  0
 12 14  1  0  0  0  0
 14 15  1  1  0  0  0
 14 16  1  0  0  0  0
 16 27  1  6  0  0  0
 18 19  2  0  0  0  0
 18 23  1  0  0  0  0
 19 20  1  0  0  0  0
 20 21  2  0  0  0  0
 21 22  1  0  0  0  0
 21 27  1  0  0  0  0
 22 23  2  0  0  0  0
 22 25  1  0  0  0  0
 23 24  1  0  0  0  0
 25 26  2  0  0  0  0
 26 27  1  0  0  0  0
M  END
>  <CHROM.1>
-139.14230281,75.33375788,-39.21530553,-39.60177571,-84.71469762,-38.02589072
100.62586510,48.19443821,57.19459000,31.35396562,0.61196609,1.24653745,-1.65619557

>  <Name>
ligand

>  <RI>
0

>  <Rbt.Current_Directory>
/home/itssahil/PROJECTS/Mol_Feturizer/New_Systems/rnas/3GX2

>  <Rbt.Executable>
rbdock ($Id: //depot/dev/client3/rdock/2013.1/src/exe/rbdock.cxx#4 $)

>  <Rbt.Library>
libRbt.so (2013.1, Build901 2013/11/27)

>  <Rbt.Parameter_File>
/export/apps/rDock/src/rDock_2013.1_src/data/scripts/dock_solv.prm

>  <Rbt.Receptor>
prm/pocket_docking_2.prm

>  <SCORE>
-8.21619

>  <SCORE.INTER>
-9.50429

>  <SCORE.INTER.CONST>
1

>  <SCORE.INTER.POLAR>
0

>  <SCORE.INTER.ROT>
7

>  <SCORE.INTER.SOLV>
20.0057

>  <SCORE.INTER.VDW>
-21.2714

>  <SCORE.INTER.norm>
-0.352011

>  <SCORE.INTRA>
1.28054

>  <SCORE.INTRA.DIHEDRAL>
-2.17075

>  <SCORE.INTRA.DIHEDRAL.0>
13.9704

>  <SCORE.INTRA.POLAR>
0

>  <SCORE.INTRA.POLAR.0>
0

>  <SCORE.INTRA.REPUL>
0

>  <SCORE.INTRA.REPUL.0>
0

>  <SCORE.INTRA.SOLV>
5.64492

>  <SCORE.INTRA.SOLV.lig_0>
-70.9758

>  <SCORE.INTRA.VDW>
-0.45654

>  <SCORE.INTRA.VDW.0>
-2.70686

>  <SCORE.INTRA.norm>
0.0474276

>  <SCORE.RESTR>
0.007556

>  <SCORE.RESTR.CAVITY>
0.007556

>  <SCORE.RESTR.norm>
0.000279852

>  <SCORE.SYSTEM>
0

>  <SCORE.SYSTEM.CONST>
0

>  <SCORE.SYSTEM.DIHEDRAL>
0

>  <SCORE.SYSTEM.SOLV>
0

>  <SCORE.SYSTEM.norm>
0

>  <SCORE.heavy>
27

>  <SCORE.norm>
-0.304303

>  <RMSD>
1.421

$$$$
ligand
 OpenBabel11021811473D
libRbt.so/2013.1/901 2013/11/27
 27 29  0  0  0  0  0  0  0  0999 V2000
   48.5374   56.6335   26.5623 N   0  0  0  0  0  0  0  0  0  0  0  0
   47.6121   57.0798   27.6013 C   0  0  2  0  0  0  0  0  0  0  0  0
   48.1952   58.1367   28.5416 C   0  0  0  0  0  0  0  0  0  0  0  0
   48.9786   58.9148   28.1083 O   0  0  0  0  0  0  0  0  0  0  0  0
   46.8890   55.9411   28.3507 C   0  0  0  0  0  0  0  0  0  0  0  0
   47.5278   55.3470   29.6369 C   0  0  0  0  0  0  0  0  0  0  0  0
   49.0497   55.0536   29.5595 C   0  0  2  0  0  0  0  0  0  0  0  0
   49.4721   54.5804   28.2412 N   0  0  0  0  0  0  0  0  0  0  0  0
   49.5323   54.1344   30.7237 C   0  0  0  0  0  0  0  0  0  0  0  0
   49.6146   54.7365   32.1670 C   0  0  1  0  0  0  0  0  0  0  0  0
   50.2230   56.0486   32.3552 O   0  0  0  0  0  0  0  0  0  0  0  0
   48.2893   54.8024   32.9764 C   0  0  1  0  0  0  0  0  0  0  0  0
   47.6807   53.5643   33.3659 O   0  0  0  0  0  0  0  0  0  0  0  0
   48.5219   55.9087   34.0516 C   0  0  1  0  0  0  0  0  0  0  0  0
   48.6422   55.5096   35.3959 O   0  0  0  0  0  0  0  0  0  0  0  0
   49.6361   56.7559   33.4290 C   0  0  2  0  0  0  0  0  0  0  0  0
   47.4721   58.4733   29.7032 O   0  0  0  0  0  0  0  0  0  0  0  0
   45.3367   59.8276   32.1773 N   0  0  0  0  0  0  0  0  0  0  0  0
   45.3373   58.4866   32.5780 C   0  0  0  0  0  0  0  0  0  0  0  0
   46.5990   57.8129   32.8767 N   0  0  0  0  0  0  0  0  0  0  0  0
   47.7831   58.4919   32.7671 C   0  0  0  0  0  0  0  0  0  0  0  0
   47.7737   59.8408   32.3614 C   0  0  0  0  0  0  0  0  0  0  0  0
   46.5160   60.5114   32.0632 C   0  0  0  0  0  0  0  0  0  0  0  0
   46.5042   61.9129   31.6426 N   0  0  0  0  0  0  0  0  0  0  0  0
   49.1391   60.3051   32.3288 N   0  0  0  0  0  0  0  0  0  0  0  0
   49.9703   59.2272   32.7145 C   0  0  0  0  0  0  0  0  0  0  0  0
   49.1492   58.0963   32.9919 N   0  0  0  0  0  0  0  0  0  0  0  0
  2  1  1  1  0  0  0
  2  3  1  0  0  0  0
  2  5  1  0  0  0  0
  3  4  1  0  0  0  0
  3 17  1  0  0  0  0
  5  6  1  0  0  0  0
  7  6  1  6  0  0  0
  7  8  1  0  0  0  0
  7  9  1  0  0  0  0
 10  9  1  6  0  0  0
 10 11  1  0  0  0  0
 10 12  1  0  0  0  0
 11 16  1  0  0  0  0
 12 13  1  1  0  0  0
 12 14  1  0  0  0  0
 14 15  1  1  0  0  0
 14 16  1  0  0  0  0
 16 27  1  6  0  0  0
 18 19  2  0  0  0  0
 18 23  1  0  0  0  0
 19 20  1  0  0  0  0
 20 21  2  0  0  0  0
 21 22  1  0  0  0  0
 21 27  1  0  0  0  0
 22 23  2  0  0  0  0
 22 25  1  0  0  0  0
 23 24  1  0  0  0  0
 25 26  2  0  0  0  0
 26 27  1  0  0  0  0
M  END
>  <CHROM.1>
32.86933942,90.48210014,-44.70861058,-35.87532640,-72.29682621,-45.57159193
105.15144702,48.16730705,57.21064807,31.28910305,0.69071642,1.24693331,-1.61297851

>  <Name>
ligand

>  <RI>
0

>  <Rbt.Current_Directory>
/home/itssahil/PROJECTS/Mol_Feturizer/New_Systems/rnas/3GX2

>  <Rbt.Executable>
rbdock ($Id: //depot/dev/client3/rdock/2013.1/src/exe/rbdock.cxx#4 $)

>  <Rbt.Library>
libRbt.so (2013.1, Build901 2013/11/27)

>  <Rbt.Parameter_File>
/export/apps/rDock/src/rDock_2013.1_src/data/scripts/dock_solv.prm

>  <Rbt.Receptor>
prm/pocket_docking_2.prm

>  <SCORE>
-9.3677

>  <SCORE.INTER>
-9.6784

>  <SCORE.INTER.CONST>
1

>  <SCORE.INTER.POLAR>
0

>  <SCORE.INTER.ROT>
7

>  <SCORE.INTER.SOLV>
20.1176

>  <SCORE.INTER.VDW>
-21.4248

>  <SCORE.INTER.norm>
-0.358459

>  <SCORE.INTRA>
0.299674

>  <SCORE.INTRA.DIHEDRAL>
-2.62585

>  <SCORE.INTRA.DIHEDRAL.0>
13.9704

>  <SCORE.INTRA.POLAR>
0

>  <SCORE.INTRA.POLAR.0>
0

>  <SCORE.INTRA.REPUL>
0

>  <SCORE.INTRA.REPUL.0>
0

>  <SCORE.INTRA.SOLV>
5.46954

>  <SCORE.INTRA.SOLV.lig_0>
-70.9758

>  <SCORE.INTRA.VDW>
-1.12217

>  <SCORE.INTRA.VDW.0>
-2.70686

>  <SCORE.INTRA.norm>
0.0110991

>  <SCORE.RESTR>
0.0110221

>  <SCORE.RESTR.CAVITY>
0.0110221

>  <SCORE.RESTR.norm>
0.000408226

>  <SCORE.SYSTEM>
0

>  <SCORE.SYSTEM.CONST>
0

>  <SCORE.SYSTEM.DIHEDRAL>
0

>  <SCORE.SYSTEM.SOLV>
0

>  <SCORE.SYSTEM.norm>
0

>  <SCORE.heavy>
27

>  <SCORE.norm>
-0.346952

>  <RMSD>
1.444

$$$$
ligand
 OpenBabel11021811473D
libRbt.so/2013.1/901 2013/11/27
 27 29  0  0  0  0  0  0  0  0999 V2000
   47.9147   58.0963   28.5508 N   0  0  0  0  0  0  0  0  0  0  0  0
   49.0260   57.2573   28.9937 C   0  0  2  0  0  0  0  0  0  0  0  0
   49.5513   56.3026   27.9195 C   0  0  0  0  0  0  0  0  0  0  0  0
   50.6192   55.8086   28.0693 O   0  0  0  0  0  0  0  0  0  0  0  0
   48.8077   56.5677   30.3568 C   0  0  0  0  0  0  0  0  0  0  0  0
   47.6429   55.5521   30.5210 C   0  0  0  0  0  0  0  0  0  0  0  0
   48.0358   54.0542   30.4187 C   0  0  2  0  0  0  0  0  0  0  0  0
   46.9137   53.1523   30.6784 N   0  0  0  0  0  0  0  0  0  0  0  0
   49.3009   53.7180   31.2670 C   0  0  0  0  0  0  0  0  0  0  0  0
   49.4145   54.3159   32.7099 C   0  0  1  0  0  0  0  0  0  0  0  0
   50.0766   55.6022   32.8952 O   0  0  0  0  0  0  0  0  0  0  0  0
   48.0969   54.4353   33.5257 C   0  0  1  0  0  0  0  0  0  0  0  0
   47.4404   53.2228   33.9179 O   0  0  0  0  0  0  0  0  0  0  0  0
   48.3793   55.5310   34.5998 C   0  0  1  0  0  0  0  0  0  0  0  0
   48.4898   55.1270   35.9435 O   0  0  0  0  0  0  0  0  0  0  0  0
   49.5240   56.3324   33.9719 C   0  0  2  0  0  0  0  0  0  0  0  0
   48.6208   55.6696   27.0715 O   0  0  0  0  0  0  0  0  0  0  0  0
   45.4480   59.4152   32.1361 N   0  0  0  0  0  0  0  0  0  0  0  0
   45.4113   58.0505   32.4442 C   0  0  0  0  0  0  0  0  0  0  0  0
   46.6139   57.3775   32.9300 N   0  0  0  0  0  0  0  0  0  0  0  0
   47.7786   58.0805   33.0867 C   0  0  0  0  0  0  0  0  0  0  0  0
   47.8074   59.4533   32.7725 C   0  0  0  0  0  0  0  0  0  0  0  0
   46.6087   60.1231   32.2877 C   0  0  0  0  0  0  0  0  0  0  0  0
   46.6364   61.5494   31.9617 N   0  0  0  0  0  0  0  0  0  0  0  0
   49.1418   59.9396   33.0249 N   0  0  0  0  0  0  0  0  0  0  0  0
   49.9165   58.8510   33.4901 C   0  0  0  0  0  0  0  0  0  0  0  0
   49.0898   57.6916   33.5371 N   0  0  0  0  0  0  0  0  0  0  0  0
  2  1  1  6  0  0  0
  2  3  1  0  0  0  0
  2  5  1  0  0  0  0
  3  4  1  0  0  0  0
  3 17  1  0  0  0  0
  5  6  1  0  0  0  0
  7  6  1  1  0  0  0
  7  8  1  0  0  0  0
  7  9  1  0  0  0  0
 10  9  1  6  0  0  0
 10 11  1  0  0  0  0
 10 12  1  0  0  0  0
 11 16  1  0  0  0  0
 12 13  1  1  0  0  0
 12 14  1  0  0  0  0
 14 15  1  1  0  0  0
 14 16  1  0  0  0  0
 16 27  1  6  0  0  0
 18 19  2  0  0  0  0
 18 23  1  0  0  0  0
 19 20  1  0  0  0  0
 20 21  2  0  0  0  0
 21 22  1  0  0  0  0
 21 27  1  0  0  0  0
 22 23  2  0  0  0  0
 22 25  1  0  0  0  0
 23 24  1  0  0  0  0
 25 26  2  0  0  0  0
 26 27  1  0  0  0  0
M  END
>  <CHROM.1>
163.13674327,62.34124820,99.09144736,175.81909902,43.39515411,-91.09535327
92.99137961,48.26344725,56.63430385,31.78598034,0.30039906,1.30815834,-1.10738724

>  <Name>
ligand

>  <RI>
0

>  <Rbt.Current_Directory>
/home/itssahil/PROJECTS/Mol_Feturizer/New_Systems/rnas/3GX2

>  <Rbt.Executable>
rbdock ($Id: //depot/dev/client3/rdock/2013.1/src/exe/rbdock.cxx#4 $)

>  <Rbt.Library>
libRbt.so (2013.1, Build901 2013/11/27)

>  <Rbt.Parameter_File>
/export/apps/rDock/src/rDock_2013.1_src/data/scripts/dock_solv.prm

>  <Rbt.Receptor>
prm/pocket_docking_2.prm

>  <SCORE>
-8.67066

>  <SCORE.INTER>
-8.25181

>  <SCORE.INTER.CONST>
1

>  <SCORE.INTER.POLAR>
0

>  <SCORE.INTER.ROT>
7

>  <SCORE.INTER.SOLV>
20.208

>  <SCORE.INTER.VDW>
-20.5039

>  <SCORE.INTER.norm>
-0.305623

>  <SCORE.INTRA>
-0.446873

>  <SCORE.INTRA.DIHEDRAL>
-0.862839

>  <SCORE.INTRA.DIHEDRAL.0>
13.9704

>  <SCORE.INTRA.POLAR>
0

>  <SCORE.INTRA.POLAR.0>
0

>  <SCORE.INTRA.REPUL>
0

>  <SCORE.INTRA.REPUL.0>
0

>  <SCORE.INTRA.SOLV>
2.52948

>  <SCORE.INTRA.SOLV.lig_0>
-70.9758

>  <SCORE.INTRA.VDW>
-1.2802

>  <SCORE.INTRA.VDW.0>
-2.70686

>  <SCORE.INTRA.norm>
-0.0165509

>  <SCORE.RESTR>
0.0280199

>  <SCORE.RESTR.CAVITY>
0.0280199

>  <SCORE.RESTR.norm>
0.00103777

>  <SCORE.SYSTEM>
0

>  <SCORE.SYSTEM.CONST>
0

>  <SCORE.SYSTEM.DIHEDRAL>
0

>  <SCORE.SYSTEM.SOLV>
0

>  <SCORE.SYSTEM.norm>
0

>  <SCORE.heavy>
27

>  <SCORE.norm>
-0.321136

>  <RMSD>
1.447

$$$$
ligand
 OpenBabel11021811473D
libRbt.so/2013.1/901 2013/11/27
 27 29  0  0  0  0  0  0  0  0999 V2000
   47.5321   56.7348   27.1713 N   0  0  0  0  0  0  0  0  0  0  0  0
   48.3188   56.3669   28.3464 C   0  0  2  0  0  0  0  0  0  0  0  0
   48.0719   57.2592   29.5646 C   0  0  0  0  0  0  0  0  0  0  0  0
   47.5390   56.7909   30.5152 O   0  0  0  0  0  0  0  0  0  0  0  0
   49.8179   56.1299   28.0682 C   0  0  0  0  0  0  0  0  0  0  0  0
   50.7140   55.5192   29.1813 C   0  0  0  0  0  0  0  0  0  0  0  0
   50.3149   54.0993   29.6642 C   0  0  2  0  0  0  0  0  0  0  0  0
   50.0443   53.1778   28.5607 N   0  0  0  0  0  0  0  0  0  0  0  0
   49.1716   54.1377   30.7246 C   0  0  0  0  0  0  0  0  0  0  0  0
   49.4710   54.7721   32.1247 C   0  0  1  0  0  0  0  0  0  0  0  0
   50.1235   56.0750   32.1887 O   0  0  0  0  0  0  0  0  0  0  0  0
   48.2771   54.8859   33.1133 C   0  0  1  0  0  0  0  0  0  0  0  0
   47.7086   53.6708   33.6188 O   0  0  0  0  0  0  0  0  0  0  0  0
   48.6814   56.0123   34.1143 C   0  0  1  0  0  0  0  0  0  0  0  0
   48.9862   55.6429   35.4377 O   0  0  0  0  0  0  0  0  0  0  0  0
   49.7096   56.8202   33.3162 C   0  0  2  0  0  0  0  0  0  0  0  0
   48.8731   58.4067   29.7291 O   0  0  0  0  0  0  0  0  0  0  0  0
   45.3289   59.8362   32.2205 N   0  0  0  0  0  0  0  0  0  0  0  0
   45.3626   58.4875   32.5930 C   0  0  0  0  0  0  0  0  0  0  0  0
   46.6425   57.8314   32.8507 N   0  0  0  0  0  0  0  0  0  0  0  0
   47.8114   58.5345   32.7302 C   0  0  0  0  0  0  0  0  0  0  0  0
   47.7687   59.8910   32.3530 C   0  0  0  0  0  0  0  0  0  0  0  0
   46.4928   60.5440   32.0956 C   0  0  0  0  0  0  0  0  0  0  0  0
   46.4464   61.9534   31.7047 N   0  0  0  0  0  0  0  0  0  0  0  0
   49.1244   60.3813   32.3011 N   0  0  0  0  0  0  0  0  0  0  0  0
   49.9832   59.3114   32.6465 C   0  0  0  0  0  0  0  0  0  0  0  0
   49.1890   58.1599   32.9176 N   0  0  0  0  0  0  0  0  0  0  0  0
  2  1  1  6  0  0  0
  2  3  1  0  0  0  0
  2  5  1  0  0  0  0
  3  4  1  0  0  0  0
  3 17  1  0  0  0  0
  5  6  1  0  0  0  0
  7  6  1  6  0  0  0
  7  8  1  0  0  0  0
  7  9  1  0  0  0  0
 10  9  1  6  0  0  0
 10 11  1  0  0  0  0
 10 12  1  0  0  0  0
 11 16  1  0  0  0  0
 12 13  1  1  0  0  0
 12 14  1  0  0  0  0
 14 15  1  1  0  0  0
 14 16  1  0  0  0  0
 16 27  1  6  0  0  0
 18 19  2  0  0  0  0
 18 23  1  0  0  0  0
 19 20  1  0  0  0  0
 20 21  2  0  0  0  0
 21 22  1  0  0  0  0
 21 27  1  0  0  0  0
 22 23  2  0  0  0  0
 22 25  1  0  0  0  0
 23 24  1  0  0  0  0
 25 26  2  0  0  0  0
 26 27  1  0  0  0  0
M  END
>  <CHROM.1>
112.50741363,-170.41643888,61.13533010,46.76684957,-66.68435889,48.50032913
97.34597011,48.44729689,57.02788824,31.47086929,0.25032547,1.15704839,-1.37821880

>  <Name>
ligand

>  <RI>
0

>  <Rbt.Current_Directory>
/home/itssahil/PROJECTS/Mol_Feturizer/New_Systems/rnas/3GX2

>  <Rbt.Executable>
rbdock ($Id: //depot/dev/client3/rdock/2013.1/src/exe/rbdock.cxx#4 $)

>  <Rbt.Library>
libRbt.so (2013.1, Build901 2013/11/27)

>  <Rbt.Parameter_File>
/export/apps/rDock/src/rDock_2013.1_src/data/scripts/dock_solv.prm

>  <Rbt.Receptor>
prm/pocket_docking_3.prm

>  <SCORE>
-17.3477

>  <SCORE.INTER>
-11.8716

>  <SCORE.INTER.CONST>
1

>  <SCORE.INTER.POLAR>
0

>  <SCORE.INTER.ROT>
7

>  <SCORE.INTER.SOLV>
18.4699

>  <SCORE.INTER.VDW>
-22.3377

>  <SCORE.INTER.norm>
-0.439688

>  <SCORE.INTRA>
-5.47614

>  <SCORE.INTRA.DIHEDRAL>
-7.76557

>  <SCORE.INTRA.DIHEDRAL.0>
13.9704

>  <SCORE.INTRA.POLAR>
0

>  <SCORE.INTRA.POLAR.0>
0

>  <SCORE.INTRA.REPUL>
0

>  <SCORE.INTRA.REPUL.0>
0

>  <SCORE.INTRA.SOLV>
2.61871

>  <SCORE.INTRA.SOLV.lig_0>
-70.9758

>  <SCORE.INTRA.VDW>
-2.9027

>  <SCORE.INTRA.VDW.0>
-2.70686

>  <SCORE.INTRA.norm>
-0.20282

>  <SCORE.RESTR>
0

>  <SCORE.RESTR.CAVITY>
0

>  <SCORE.RESTR.norm>
0

>  <SCORE.SYSTEM>
0

>  <SCORE.SYSTEM.CONST>
0

>  <SCORE.SYSTEM.DIHEDRAL>
0

>  <SCORE.SYSTEM.SOLV>
0

>  <SCORE.SYSTEM.norm>
0

>  <SCORE.heavy>
27

>  <SCORE.norm>
-0.642508

>  <RMSD>
1.460

$$$$
ligand
 OpenBabel11021811473D
libRbt.so/2013.1/901 2013/11/27
 27 29  0  0  0  0  0  0  0  0999 V2000
   47.8832   56.1024   27.5657 N   0  0  0  0  0  0  0  0  0  0  0  0
   47.0094   56.9613   28.3618 C   0  0  2  0  0  0  0  0  0  0  0  0
   47.6458   58.2930   28.7653 C   0  0  0  0  0  0  0  0  0  0  0  0
   47.3231   58.7906   29.7925 O   0  0  0  0  0  0  0  0  0  0  0  0
   46.3056   56.2503   29.5367 C   0  0  0  0  0  0  0  0  0  0  0  0
   47.1614   55.6104   30.6651 C   0  0  0  0  0  0  0  0  0  0  0  0
   48.1986   54.5513   30.2058 C   0  0  2  0  0  0  0  0  0  0  0  0
   47.7080   53.7100   29.1142 N   0  0  0  0  0  0  0  0  0  0  0  0
   48.7712   53.7303   31.4022 C   0  0  0  0  0  0  0  0  0  0  0  0
   49.2654   54.5033   32.6713 C   0  0  1  0  0  0  0  0  0  0  0  0
   49.9794   55.7636   32.5015 O   0  0  0  0  0  0  0  0  0  0  0  0
   48.2055   54.8013   33.7684 C   0  0  1  0  0  0  0  0  0  0  0  0
   47.6473   53.6886   34.4794 O   0  0  0  0  0  0  0  0  0  0  0  0
   48.7780   56.0097   34.5721 C   0  0  1  0  0  0  0  0  0  0  0  0
   49.2228   55.7781   35.8872 O   0  0  0  0  0  0  0  0  0  0  0  0
   49.7385   56.6574   33.5697 C   0  0  2  0  0  0  0  0  0  0  0  0
   48.8897   58.6402   28.2013 O   0  0  0  0  0  0  0  0  0  0  0  0
   45.3987   59.6308   32.2233 N   0  0  0  0  0  0  0  0  0  0  0  0
   45.4152   58.3114   32.6900 C   0  0  0  0  0  0  0  0  0  0  0  0
   46.6861   57.6628   33.0052 N   0  0  0  0  0  0  0  0  0  0  0  0
   47.8631   58.3444   32.8467 C   0  0  0  0  0  0  0  0  0  0  0  0
   47.8377   59.6713   32.3748 C   0  0  0  0  0  0  0  0  0  0  0  0
   46.5708   60.3168   32.0600 C   0  0  0  0  0  0  0  0  0  0  0  0
   46.5423   61.6956   31.5706 N   0  0  0  0  0  0  0  0  0  0  0  0
   49.1987   60.1437   32.3013 N   0  0  0  0  0  0  0  0  0  0  0  0
   50.0434   59.0925   32.7292 C   0  0  0  0  0  0  0  0  0  0  0  0
   49.2352   57.9707   33.0730 N   0  0  0  0  0  0  0  0  0  0  0  0
  2  1  1  1  0  0  0
  2  3  1  0  0  0  0
  2  5  1  0  0  0  0
  3  4  1  0  0  0  0
  3 17  1  0  0  0  0
  5  6  1  0  0  0  0
  7  6  1  1  0  0  0
  7  8  1  0  0  0  0
  7  9  1  0  0  0  0
 10  9  1  6  0  0  0
 10 11  1  0  0  0  0
 10 12  1  0  0  0  0
 11 16  1  0  0  0  0
 12 13  1  1  0  0  0
 12 14  1  0  0  0  0
 14 15  1  1  0  0  0
 14 16  1  0  0  0  0
 16 27  1  6  0  0  0
 18 19  2  0  0  0  0
 18 23  1  0  0  0  0
 19 20  1  0  0  0  0
 20 21  2  0  0  0  0
 21 22  1  0  0  0  0
 21 27  1  0  0  0  0
 22 23  2  0  0  0  0
 22 25  1  0  0  0  0
 23 24  1  0  0  0  0
 25 26  2  0  0  0  0
 26 27  1  0  0  0  0
M  END
>  <CHROM.1>
-148.86585103,61.27724445,-56.84844206,-37.46766514,-47.83741463,-38.94886389
89.18027385,47.96530495,57.08753343,31.69115802,3.01827468,-1.29709281,0.79885210

>  <Name>
ligand

>  <RI>
0

>  <Rbt.Current_Directory>
/home/itssahil/PROJECTS/Mol_Feturizer/New_Systems/rnas/3GX2

>  <Rbt.Executable>
rbdock ($Id: //depot/dev/client3/rdock/2013.1/src/exe/rbdock.cxx#4 $)

>  <Rbt.Library>
libRbt.so (2013.1, Build901 2013/11/27)

>  <Rbt.Parameter_File>
/export/apps/rDock/src/rDock_2013.1_src/data/scripts/dock_solv.prm

>  <Rbt.Receptor>
prm/pocket_docking_3.prm

>  <SCORE>
-12.3046

>  <SCORE.INTER>
-10.8924

>  <SCORE.INTER.CONST>
1

>  <SCORE.INTER.POLAR>
0

>  <SCORE.INTER.ROT>
7

>  <SCORE.INTER.SOLV>
17.0776

>  <SCORE.INTER.VDW>
-21.2208

>  <SCORE.INTER.norm>
-0.403421

>  <SCORE.INTRA>
-1.42147

>  <SCORE.INTRA.DIHEDRAL>
-5.77717

>  <SCORE.INTRA.DIHEDRAL.0>
13.9704

>  <SCORE.INTRA.POLAR>
0

>  <SCORE.INTRA.POLAR.0>
0

>  <SCORE.INTRA.REPUL>
0

>  <SCORE.INTRA.REPUL.0>
0

>  <SCORE.INTRA.SOLV>
5.92095

>  <SCORE.INTRA.SOLV.lig_0>
-70.9758

>  <SCORE.INTRA.VDW>
-1.49336

>  <SCORE.INTRA.VDW.0>
-2.70686

>  <SCORE.INTRA.norm>
-0.052647

>  <SCORE.RESTR>
0.00925276

>  <SCORE.RESTR.CAVITY>
0.00925276

>  <SCORE.RESTR.norm>
0.000342695

>  <SCORE.SYSTEM>
0

>  <SCORE.SYSTEM.CONST>
0

>  <SCORE.SYSTEM.DIHEDRAL>
0

>  <SCORE.SYSTEM.SOLV>
0

>  <SCORE.SYSTEM.norm>
0

>  <SCORE.heavy>
27

>  <SCORE.norm>
-0.455725

>  <RMSD>
1.462

$$$$
ligand
 OpenBabel11021811473D
libRbt.so/2013.1/901 2013/11/27
 27 29  0  0  0  0  0  0  0  0999 V2000
   48.5115   56.6662   26.4182 N   0  0  0  0  0  0  0  0  0  0  0  0
   48.0694   56.6739   27.8109 C   0  0  2  0  0  0  0  0  0  0  0  0
   48.3666   57.9798   28.5507 C   0  0  0  0  0  0  0  0  0  0  0  0
   48.9971   57.9353   29.5544 O   0  0  0  0  0  0  0  0  0  0  0  0
   48.4671   55.4208   28.6187 C   0  0  0  0  0  0  0  0  0  0  0  0
   47.9029   55.2264   30.0537 C   0  0  0  0  0  0  0  0  0  0  0  0
   47.8061   53.7579   30.5463 C   0  0  2  0  0  0  0  0  0  0  0  0
   46.5234   53.4534   31.1802 N   0  0  0  0  0  0  0  0  0  0  0  0
   49.0329   53.3471   31.4178 C   0  0  0  0  0  0  0  0  0  0  0  0
   49.2274   54.0394   32.8090 C   0  0  1  0  0  0  0  0  0  0  0  0
   49.8966   55.3339   32.8704 O   0  0  0  0  0  0  0  0  0  0  0  0
   47.9582   54.2154   33.6887 C   0  0  1  0  0  0  0  0  0  0  0  0
   47.3273   53.0329   34.1975 O   0  0  0  0  0  0  0  0  0  0  0  0
   48.2994   55.3795   34.6698 C   0  0  1  0  0  0  0  0  0  0  0  0
   48.4869   55.0655   36.0289 O   0  0  0  0  0  0  0  0  0  0  0  0
   49.4049   56.1352   33.9258 C   0  0  2  0  0  0  0  0  0  0  0  0
   48.3275   59.1864   27.8239 O   0  0  0  0  0  0  0  0  0  0  0  0
   45.2244   59.0986   32.1292 N   0  0  0  0  0  0  0  0  0  0  0  0
   45.2076   57.7577   32.5296 C   0  0  0  0  0  0  0  0  0  0  0  0
   46.4374   57.1157   32.9883 N   0  0  0  0  0  0  0  0  0  0  0  0
   47.6083   57.8245   33.0291 C   0  0  0  0  0  0  0  0  0  0  0  0
   47.6169   59.1731   32.6225 C   0  0  0  0  0  0  0  0  0  0  0  0
   46.3910   59.8120   32.1648 C   0  0  0  0  0  0  0  0  0  0  0  0
   46.3977   61.2132   31.7430 N   0  0  0  0  0  0  0  0  0  0  0  0
   48.9631   59.6718   32.7633 N   0  0  0  0  0  0  0  0  0  0  0  0
   49.7652   58.6148   33.2543 C   0  0  0  0  0  0  0  0  0  0  0  0
   48.9442   57.4633   33.4272 N   0  0  0  0  0  0  0  0  0  0  0  0
  2  1  1  6  0  0  0
  2  3  1  0  0  0  0
  2  5  1  0  0  0  0
  3  4  1  0  0  0  0
  3 17  1  0  0  0  0
  5  6  1  0  0  0  0
  7  6  1  1  0  0  0
  7  8  1  0  0  0  0
  7  9  1  0  0  0  0
 10  9  1  6  0  0  0
 10 11  1  0  0  0  0
 10 12  1  0  0  0  0
 11 16  1  0  0  0  0
 12 13  1  1  0  0  0
 12 14  1  0  0  0  0
 14 15  1  1  0  0  0
 14 16  1  0  0  0  0
 16 27  1  6  0  0  0
 18 19  2  0  0  0  0
 18 23  1  0  0  0  0
 19 20  1  0  0  0  0
 20 21  2  0  0  0  0
 21 22  1  0  0  0  0
 21 27  1  0  0  0  0
 22 23  2  0  0  0  0
 22 25  1  0  0  0  0
 23 24  1  0  0  0  0
 25 26  2  0  0  0  0
 26 27  1  0  0  0  0
M  END
>  <CHROM.1>
-124.18321964,-172.23601579,154.00609615,-133.91483494,66.50655653,-83.87750984
93.08910665,47.99472540,56.64345433,31.71720447,-1.93844532,-1.37268762,1.88265001

>  <Name>
ligand

>  <RI>
0

>  <Rbt.Current_Directory>
/home/itssahil/PROJECTS/Mol_Feturizer/New_Systems/rnas/3GX2

>  <Rbt.Executable>
rbdock ($Id: //depot/dev/client3/rdock/2013.1/src/exe/rbdock.cxx#4 $)

>  <Rbt.Library>
libRbt.so (2013.1, Build901 2013/11/27)

>  <Rbt.Parameter_File>
/export/apps/rDock/src/rDock_2013.1_src/data/scripts/dock_solv.prm

>  <Rbt.Receptor>
prm/pocket_docking_2.prm

>  <SCORE>
-7.21119

>  <SCORE.INTER>
-7.94965

>  <SCORE.INTER.CONST>
1

>  <SCORE.INTER.POLAR>
0

>  <SCORE.INTER.ROT>
7

>  <SCORE.INTER.SOLV>
21.3698

>  <SCORE.INTER.VDW>
-20.6897

>  <SCORE.INTER.norm>
-0.294432

>  <SCORE.INTRA>
0.63504

>  <SCORE.INTRA.DIHEDRAL>
0.0131189

>  <SCORE.INTRA.DIHEDRAL.0>
13.9704

>  <SCORE.INTRA.POLAR>
0

>  <SCORE.INTRA.POLAR.0>
0

>  <SCORE.INTRA.REPUL>
0.00183865

>  <SCORE.INTRA.REPUL.0>
0

>  <SCORE.INTRA.SOLV>
2.28325

>  <SCORE.INTRA.SOLV.lig_0>
-70.9758

>  <SCORE.INTRA.VDW>
-0.522336

>  <SCORE.INTRA.VDW.0>
-2.70686

>  <SCORE.INTRA.norm>
0.02352

>  <SCORE.RESTR>
0.103418

>  <SCORE.RESTR.CAVITY>
0.103418

>  <SCORE.RESTR.norm>
0.0038303

>  <SCORE.SYSTEM>
0

>  <SCORE.SYSTEM.CONST>
0

>  <SCORE.SYSTEM.DIHEDRAL>
0

>  <SCORE.SYSTEM.SOLV>
0

>  <SCORE.SYSTEM.norm>
0

>  <SCORE.heavy>
27

>  <SCORE.norm>
-0.267081

>  <RMSD>
1.463

$$$$
ligand
 OpenBabel11021811473D
libRbt.so/2013.1/901 2013/11/27
 27 29  0  0  0  0  0  0  0  0999 V2000
   47.9452   57.8453   26.4871 N   0  0  0  0  0  0  0  0  0  0  0  0
   48.6876   57.1152   27.5122 C   0  0  2  0  0  0  0  0  0  0  0  0
   49.1206   55.7111   27.0854 C   0  0  0  0  0  0  0  0  0  0  0  0
   50.1890   55.3184   27.4186 O   0  0  0  0  0  0  0  0  0  0  0  0
   48.0464   57.1465   28.9155 C   0  0  0  0  0  0  0  0  0  0  0  0
   48.6999   56.3398   30.0719 C   0  0  0  0  0  0  0  0  0  0  0  0
   48.4098   54.8153   30.0777 C   0  0  2  0  0  0  0  0  0  0  0  0
   46.9843   54.5074   30.1922 N   0  0  0  0  0  0  0  0  0  0  0  0
   49.2866   54.0529   31.1185 C   0  0  0  0  0  0  0  0  0  0  0  0
   49.4726   54.6794   32.5416 C   0  0  1  0  0  0  0  0  0  0  0  0
   50.1166   55.9821   32.6651 O   0  0  0  0  0  0  0  0  0  0  0  0
   48.2033   54.7868   33.4323 C   0  0  1  0  0  0  0  0  0  0  0  0
   47.5974   53.5685   33.8836 O   0  0  0  0  0  0  0  0  0  0  0  0
   48.5252   55.9076   34.4688 C   0  0  1  0  0  0  0  0  0  0  0  0
   48.7236   55.5306   35.8102 O   0  0  0  0  0  0  0  0  0  0  0  0
   49.6132   56.7205   33.7602 C   0  0  2  0  0  0  0  0  0  0  0  0
   48.1225   54.7727   26.7552 O   0  0  0  0  0  0  0  0  0  0  0  0
   45.4201   59.6401   31.9214 N   0  0  0  0  0  0  0  0  0  0  0  0
   45.4385   58.2739   32.2243 C   0  0  0  0  0  0  0  0  0  0  0  0
   46.6661   57.6491   32.7119 N   0  0  0  0  0  0  0  0  0  0  0  0
   47.8003   58.3987   32.8753 C   0  0  0  0  0  0  0  0  0  0  0  0
   47.7737   59.7727   32.5663 C   0  0  0  0  0  0  0  0  0  0  0  0
   46.5502   60.3945   32.0796 C   0  0  0  0  0  0  0  0  0  0  0  0
   46.5203   61.8220   31.7590 N   0  0  0  0  0  0  0  0  0  0  0  0
   49.0862   60.3125   32.8251 N   0  0  0  0  0  0  0  0  0  0  0  0
   49.9034   59.2550   33.2891 C   0  0  0  0  0  0  0  0  0  0  0  0
   49.1249   58.0624   33.3289 N   0  0  0  0  0  0  0  0  0  0  0  0
  2  1  1  6  0  0  0
  2  3  1  0  0  0  0
  2  5  1  0  0  0  0
  3  4  1  0  0  0  0
  3 17  1  0  0  0  0
  5  6  1  0  0  0  0
  7  6  1  1  0  0  0
  7  8  1  0  0  0  0
  7  9  1  0  0  0  0
 10  9  1  6  0  0  0
 10 11  1  0  0  0  0
 10 12  1  0  0  0  0
 11 16  1  0  0  0  0
 12 13  1  1  0  0  0
 12 14  1  0  0  0  0
 14 15  1  1  0  0  0
 14 16  1  0  0  0  0
 16 27  1  6  0  0  0
 18 19  2  0  0  0  0
 18 23  1  0  0  0  0
 19 20  1  0  0  0  0
 20 21  2  0  0  0  0
 21 22  1  0  0  0  0
 21 27  1  0  0  0  0
 22 23  2  0  0  0  0
 22 25  1  0  0  0  0
 23 24  1  0  0  0  0
 25 26  2  0  0  0  0
 26 27  1  0  0  0  0
M  END
>  <CHROM.1>
141.24369199,176.57801076,-78.81461805,-60.29123029,43.30112079,-61.66555720
89.01184877,48.25054540,56.88872672,31.36641759,1.19678399,1.26629394,-1.59438088

>  <Name>
ligand

>  <RI>
0

>  <Rbt.Current_Directory>
/home/itssahil/PROJECTS/Mol_Feturizer/New_Systems/rnas/3GX2

>  <Rbt.Executable>
rbdock ($Id: //depot/dev/client3/rdock/2013.1/src/exe/rbdock.cxx#4 $)

>  <Rbt.Library>
libRbt.so (2013.1, Build901 2013/11/27)

>  <Rbt.Parameter_File>
/export/apps/rDock/src/rDock_2013.1_src/data/scripts/dock_solv.prm

>  <Rbt.Receptor>
prm/pocket_docking_3.prm

>  <SCORE>
-11.9213

>  <SCORE.INTER>
-8.7585

>  <SCORE.INTER.CONST>
1

>  <SCORE.INTER.POLAR>
0

>  <SCORE.INTER.ROT>
7

>  <SCORE.INTER.SOLV>
20.5801

>  <SCORE.INTER.VDW>
-20.9657

>  <SCORE.INTER.norm>
-0.324389

>  <SCORE.INTRA>
-3.16276

>  <SCORE.INTRA.DIHEDRAL>
-6.68125

>  <SCORE.INTRA.DIHEDRAL.0>
13.9704

>  <SCORE.INTRA.POLAR>
0

>  <SCORE.INTRA.POLAR.0>
0

>  <SCORE.INTRA.REPUL>
0

>  <SCORE.INTRA.REPUL.0>
0

>  <SCORE.INTRA.SOLV>
3.11256

>  <SCORE.INTRA.SOLV.lig_0>
-70.9758

>  <SCORE.INTRA.VDW>
-1.37842

>  <SCORE.INTRA.VDW.0>
-2.70686

>  <SCORE.INTRA.norm>
-0.117139

>  <SCORE.RESTR>
0

>  <SCORE.RESTR.CAVITY>
0

>  <SCORE.RESTR.norm>
0

>  <SCORE.SYSTEM>
0

>  <SCORE.SYSTEM.CONST>
0

>  <SCORE.SYSTEM.DIHEDRAL>
0

>  <SCORE.SYSTEM.SOLV>
0

>  <SCORE.SYSTEM.norm>
0

>  <SCORE.heavy>
27

>  <SCORE.norm>
-0.441528

>  <RMSD>
1.474

$$$$
ligand
 OpenBabel11021811473D
libRbt.so/2013.1/901 2013/11/27
 27 29  0  0  0  0  0  0  0  0999 V2000
   46.0063   56.9392   29.0182 N   0  0  0  0  0  0  0  0  0  0  0  0
   47.3134   56.3287   29.2500 C   0  0  2  0  0  0  0  0  0  0  0  0
   48.4418   57.3386   29.4689 C   0  0  0  0  0  0  0  0  0  0  0  0
   48.1597   58.4575   29.7435 O   0  0  0  0  0  0  0  0  0  0  0  0
   47.6889   55.2141   28.2511 C   0  0  0  0  0  0  0  0  0  0  0  0
   47.9266   53.7696   28.7725 C   0  0  0  0  0  0  0  0  0  0  0  0
   48.8463   53.6451   30.0163 C   0  0  2  0  0  0  0  0  0  0  0  0
   49.6422   52.4177   30.0155 N   0  0  0  0  0  0  0  0  0  0  0  0
   48.0676   53.8693   31.3492 C   0  0  0  0  0  0  0  0  0  0  0  0
   48.8121   54.5551   32.5441 C   0  0  1  0  0  0  0  0  0  0  0  0
   49.5815   55.7695   32.2980 O   0  0  0  0  0  0  0  0  0  0  0  0
   47.9640   54.8807   33.8053 C   0  0  1  0  0  0  0  0  0  0  0  0
   47.4445   53.7813   34.5646 O   0  0  0  0  0  0  0  0  0  0  0  0
   48.7442   56.0139   34.5409 C   0  0  1  0  0  0  0  0  0  0  0  0
   49.3730   55.6999   35.7603 O   0  0  0  0  0  0  0  0  0  0  0  0
   49.5792   56.6341   33.4162 C   0  0  2  0  0  0  0  0  0  0  0  0
   49.7185   56.8533   29.8156 O   0  0  0  0  0  0  0  0  0  0  0  0
   45.3405   59.7256   32.0152 N   0  0  0  0  0  0  0  0  0  0  0  0
   45.3368   58.3562   32.3044 C   0  0  0  0  0  0  0  0  0  0  0  0
   46.5815   57.6815   32.6659 N   0  0  0  0  0  0  0  0  0  0  0  0
   47.7535   58.3873   32.7242 C   0  0  0  0  0  0  0  0  0  0  0  0
   47.7487   59.7647   32.4297 C   0  0  0  0  0  0  0  0  0  0  0  0
   46.5081   60.4363   32.0689 C   0  0  0  0  0  0  0  0  0  0  0  0
   46.5009   61.8674   31.7636 N   0  0  0  0  0  0  0  0  0  0  0  0
   49.0994   60.2532   32.5642 N   0  0  0  0  0  0  0  0  0  0  0  0
   49.9174   59.1613   32.9386 C   0  0  0  0  0  0  0  0  0  0  0  0
   49.1022   57.9976   33.0447 N   0  0  0  0  0  0  0  0  0  0  0  0
  2  1  1  6  0  0  0
  2  3  1  0  0  0  0
  2  5  1  0  0  0  0
  3  4  1  0  0  0  0
  3 17  1  0  0  0  0
  5  6  1  0  0  0  0
  7  6  1  6  0  0  0
  7  8  1  0  0  0  0
  7  9  1  0  0  0  0
 10  9  1  6  0  0  0
 10 11  1  0  0  0  0
 10 12  1  0  0  0  0
 11 16  1  0  0  0  0
 12 13  1  1  0  0  0
 12 14  1  0  0  0  0
 14 15  1  1  0  0  0
 14 16  1  0  0  0  0
 16 27  1  6  0  0  0
 18 19  2  0  0  0  0
 18 23  1  0  0  0  0
 19 20  1  0  0  0  0
 20 21  2  0  0  0  0
 21 22  1  0  0  0  0
 21 27  1  0  0  0  0
 22 23  2  0  0  0  0
 22 25  1  0  0  0  0
 23 24  1  0  0  0  0
 25 26  2  0  0  0  0
 26 27  1  0  0  0  0
M  END
>  <CHROM.1>
17.19597658,-118.16731257,-47.49575005,-146.75455344,-146.42746936,47.31958260
72.19535276,48.07301084,56.82084362,31.74218132,2.33889744,-1.23758759,0.94360169

>  <Name>
ligand

>  <RI>
0

>  <Rbt.Current_Directory>
/home/itssahil/PROJECTS/Mol_Feturizer/New_Systems/rnas/3GX2

>  <Rbt.Executable>
rbdock ($Id: //depot/dev/client3/rdock/2013.1/src/exe/rbdock.cxx#4 $)

>  <Rbt.Library>
libRbt.so (2013.1, Build901 2013/11/27)

>  <Rbt.Parameter_File>
/export/apps/rDock/src/rDock_2013.1_src/data/scripts/dock_solv.prm

>  <Rbt.Receptor>
prm/pocket_docking_3.prm

>  <SCORE>
-8.5657

>  <SCORE.INTER>
-7.92762

>  <SCORE.INTER.CONST>
1

>  <SCORE.INTER.POLAR>
0

>  <SCORE.INTER.ROT>
7

>  <SCORE.INTER.SOLV>
19.4039

>  <SCORE.INTER.VDW>
-20.0197

>  <SCORE.INTER.norm>
-0.293616

>  <SCORE.INTRA>
-0.638073

>  <SCORE.INTRA.DIHEDRAL>
3.47207

>  <SCORE.INTRA.DIHEDRAL.0>
13.9704

>  <SCORE.INTRA.POLAR>
0

>  <SCORE.INTRA.POLAR.0>
0

>  <SCORE.INTRA.REPUL>
0

>  <SCORE.INTRA.REPUL.0>
0

>  <SCORE.INTRA.SOLV>
2.05937

>  <SCORE.INTRA.SOLV.lig_0>
-70.9758

>  <SCORE.INTRA.VDW>
-3.40379

>  <SCORE.INTRA.VDW.0>
-2.70686

>  <SCORE.INTRA.norm>
-0.0236323

>  <SCORE.RESTR>
0

>  <SCORE.RESTR.CAVITY>
0

>  <SCORE.RESTR.norm>
0

>  <SCORE.SYSTEM>
0

>  <SCORE.SYSTEM.CONST>
0

>  <SCORE.SYSTEM.DIHEDRAL>
0

>  <SCORE.SYSTEM.SOLV>
0

>  <SCORE.SYSTEM.norm>
0

>  <SCORE.heavy>
27

>  <SCORE.norm>
-0.317248

>  <RMSD>
1.480

$$$$
ligand
 OpenBabel11021811473D
libRbt.so/2013.1/901 2013/11/27
 27 29  0  0  0  0  0  0  0  0999 V2000
   47.7159   56.6151   29.8848 N   0  0  0  0  0  0  0  0  0  0  0  0
   46.6617   56.0824   29.0246 C   0  0  2  0  0  0  0  0  0  0  0  0
   45.4621   57.0177   28.8587 C   0  0  0  0  0  0  0  0  0  0  0  0
   45.3024   57.8856   29.6512 O   0  0  0  0  0  0  0  0  0  0  0  0
   46.2518   54.6276   29.3357 C   0  0  0  0  0  0  0  0  0  0  0  0
   47.3162   53.4987   29.2471 C   0  0  0  0  0  0  0  0  0  0  0  0
   48.4440   53.5511   30.3119 C   0  0  2  0  0  0  0  0  0  0  0  0
   49.4840   52.5466   30.0896 N   0  0  0  0  0  0  0  0  0  0  0  0
   47.8813   53.5385   31.7668 C   0  0  0  0  0  0  0  0  0  0  0  0
   48.7071   54.2453   32.8941 C   0  0  1  0  0  0  0  0  0  0  0  0
   49.5218   55.4066   32.5554 O   0  0  0  0  0  0  0  0  0  0  0  0
   47.9293   54.6743   34.1696 C   0  0  1  0  0  0  0  0  0  0  0  0
   47.3912   53.6407   35.0046 O   0  0  0  0  0  0  0  0  0  0  0  0
   48.7925   55.8028   34.8142 C   0  0  1  0  0  0  0  0  0  0  0  0
   49.4567   55.5190   36.0222 O   0  0  0  0  0  0  0  0  0  0  0  0
   49.6076   56.3246   33.6267 C   0  0  2  0  0  0  0  0  0  0  0  0
   44.8857   57.1487   27.5795 O   0  0  0  0  0  0  0  0  0  0  0  0
   45.4711   59.5335   32.1847 N   0  0  0  0  0  0  0  0  0  0  0  0
   45.4161   58.1798   32.5358 C   0  0  0  0  0  0  0  0  0  0  0  0
   46.6395   57.4680   32.8988 N   0  0  0  0  0  0  0  0  0  0  0  0
   47.8417   58.1236   32.8980 C   0  0  0  0  0  0  0  0  0  0  0  0
   47.8884   59.4855   32.5414 C   0  0  0  0  0  0  0  0  0  0  0  0
   46.6689   60.1941   32.1791 C   0  0  0  0  0  0  0  0  0  0  0  0
   46.7152   61.6092   31.8093 N   0  0  0  0  0  0  0  0  0  0  0  0
   49.2616   59.9199   32.6224 N   0  0  0  0  0  0  0  0  0  0  0  0
   50.0413   58.8109   33.0271 C   0  0  0  0  0  0  0  0  0  0  0  0
   49.1801   57.6899   33.2047 N   0  0  0  0  0  0  0  0  0  0  0  0
  2  1  1  1  0  0  0
  2  3  1  0  0  0  0
  2  5  1  0  0  0  0
  3  4  1  0  0  0  0
  3 17  1  0  0  0  0
  5  6  1  0  0  0  0
  7  6  1  6  0  0  0
  7  8  1  0  0  0  0
  7  9  1  0  0  0  0
 10  9  1  6  0  0  0
 10 11  1  0  0  0  0
 10 12  1  0  0  0  0
 11 16  1  0  0  0  0
 12 13  1  1  0  0  0
 12 14  1  0  0  0  0
 14 15  1  1  0  0  0
 14 16  1  0  0  0  0
 16 27  1  6  0  0  0
 18 19  2  0  0  0  0
 18 23  1  0  0  0  0
 19 20  1  0  0  0  0
 20 21  2  0  0  0  0
 21 22  1  0  0  0  0
 21 27  1  0  0  0  0
 22 23  2  0  0  0  0
 22 25  1  0  0  0  0
 23 24  1  0  0  0  0
 25 26  2  0  0  0  0
 26 27  1  0  0  0  0
M  END
>  <CHROM.1>
-18.85939651,-59.60756226,67.53118359,-174.07752595,-151.07385620,31.13735438
71.12890659,47.61430409,56.57598225,31.86471001,2.56819373,-1.03092338,0.43075833

>  <Name>
ligand

>  <RI>
0

>  <Rbt.Current_Directory>
/home/itssahil/PROJECTS/Mol_Feturizer/New_Systems/rnas/3GX2

>  <Rbt.Executable>
rbdock ($Id: //depot/dev/client3/rdock/2013.1/src/exe/rbdock.cxx#4 $)

>  <Rbt.Library>
libRbt.so (2013.1, Build901 2013/11/27)

>  <Rbt.Parameter_File>
/export/apps/rDock/src/rDock_2013.1_src/data/scripts/dock_solv.prm

>  <Rbt.Receptor>
prm/pocket_docking_3.prm

>  <SCORE>
-10.5945

>  <SCORE.INTER>
-8.98701

>  <SCORE.INTER.CONST>
1

>  <SCORE.INTER.POLAR>
0

>  <SCORE.INTER.ROT>
7

>  <SCORE.INTER.SOLV>
20.0384

>  <SCORE.INTER.VDW>
-20.9375

>  <SCORE.INTER.norm>
-0.332852

>  <SCORE.INTRA>
-1.6108

>  <SCORE.INTRA.DIHEDRAL>
-3.91925

>  <SCORE.INTRA.DIHEDRAL.0>
13.9704

>  <SCORE.INTRA.POLAR>
0

>  <SCORE.INTRA.POLAR.0>
0

>  <SCORE.INTRA.REPUL>
0

>  <SCORE.INTRA.REPUL.0>
0

>  <SCORE.INTRA.SOLV>
3.94112

>  <SCORE.INTRA.SOLV.lig_0>
-70.9758

>  <SCORE.INTRA.VDW>
-1.62174

>  <SCORE.INTRA.VDW.0>
-2.70686

>  <SCORE.INTRA.norm>
-0.0596593

>  <SCORE.RESTR>
0.00326628

>  <SCORE.RESTR.CAVITY>
0.00326628

>  <SCORE.RESTR.norm>
0.000120973

>  <SCORE.SYSTEM>
0

>  <SCORE.SYSTEM.CONST>
0

>  <SCORE.SYSTEM.DIHEDRAL>
0

>  <SCORE.SYSTEM.SOLV>
0

>  <SCORE.SYSTEM.norm>
0

>  <SCORE.heavy>
27

>  <SCORE.norm>
-0.39239

>  <RMSD>
1.522

$$$$
ligand
 OpenBabel11021811473D
libRbt.so/2013.1/901 2013/11/27
 27 29  0  0  0  0  0  0  0  0999 V2000
   50.6472   54.2521   27.1448 N   0  0  0  0  0  0  0  0  0  0  0  0
   49.4865   55.1179   27.3397 C   0  0  2  0  0  0  0  0  0  0  0  0
   49.0548   55.8725   26.0806 C   0  0  0  0  0  0  0  0  0  0  0  0
   48.3449   56.8156   26.1968 O   0  0  0  0  0  0  0  0  0  0  0  0
   49.5616   56.0229   28.5874 C   0  0  0  0  0  0  0  0  0  0  0  0
   49.7176   55.3759   29.9917 C   0  0  0  0  0  0  0  0  0  0  0  0
   48.6261   54.3446   30.3834 C   0  0  2  0  0  0  0  0  0  0  0  0
   47.3035   54.9486   30.5443 N   0  0  0  0  0  0  0  0  0  0  0  0
   49.0526   53.4701   31.6027 C   0  0  0  0  0  0  0  0  0  0  0  0
   49.2687   54.1708   32.9864 C   0  0  1  0  0  0  0  0  0  0  0  0
   49.9926   55.4359   33.0361 O   0  0  0  0  0  0  0  0  0  0  0  0
   48.0032   54.4123   33.8559 C   0  0  1  0  0  0  0  0  0  0  0  0
   47.3190   53.2645   34.3752 O   0  0  0  0  0  0  0  0  0  0  0  0
   48.3885   55.5729   34.8248 C   0  0  1  0  0  0  0  0  0  0  0  0
   48.5545   55.2681   36.1887 O   0  0  0  0  0  0  0  0  0  0  0  0
   49.5299   56.2708   34.0785 C   0  0  2  0  0  0  0  0  0  0  0  0
   49.8509   55.7576   24.9236 O   0  0  0  0  0  0  0  0  0  0  0  0
   45.5102   59.3618   32.1354 N   0  0  0  0  0  0  0  0  0  0  0  0
   45.4362   58.0238   32.5393 C   0  0  0  0  0  0  0  0  0  0  0  0
   46.6286   57.3439   33.0404 N   0  0  0  0  0  0  0  0  0  0  0  0
   47.8202   58.0142   33.1176 C   0  0  0  0  0  0  0  0  0  0  0  0
   47.8864   59.3600   32.7072 C   0  0  0  0  0  0  0  0  0  0  0  0
   46.6979   60.0368   32.2072 C   0  0  0  0  0  0  0  0  0  0  0  0
   46.7644   61.4352   31.7813 N   0  0  0  0  0  0  0  0  0  0  0  0
   49.2429   59.8150   32.8906 N   0  0  0  0  0  0  0  0  0  0  0  0
   49.9933   58.7345   33.4112 C   0  0  0  0  0  0  0  0  0  0  0  0
   49.1296   57.6112   33.5606 N   0  0  0  0  0  0  0  0  0  0  0  0
  2  1  1  6  0  0  0
  2  3  1  0  0  0  0
  2  5  1  0  0  0  0
  3  4  1  0  0  0  0
  3 17  1  0  0  0  0
  5  6  1  0  0  0  0
  7  6  1  1  0  0  0
  7  8  1  0  0  0  0
  7  9  1  0  0  0  0
 10  9  1  6  0  0  0
 10 11  1  0  0  0  0
 10 12  1  0  0  0  0
 11 16  1  0  0  0  0
 12 13  1  1  0  0  0
 12 14  1  0  0  0  0
 14 15  1  1  0  0  0
 14 16  1  0  0  0  0
 16 27  1  6  0  0  0
 18 19  2  0  0  0  0
 18 23  1  0  0  0  0
 19 20  1  0  0  0  0
 20 21  2  0  0  0  0
 21 22  1  0  0  0  0
 21 27  1  0  0  0  0
 22 23  2  0  0  0  0
 22 25  1  0  0  0  0
 23 24  1  0  0  0  0
 25 26  2  0  0  0  0
 26 27  1  0  0  0  0
M  END
>  <CHROM.1>
-162.53354391,-58.75451753,-56.48345728,-66.40078161,64.38357833,-43.53270277
91.36601660,48.46234412,56.45394872,31.41599341,-0.94054048,-1.22669356,1.94840305

>  <Name>
ligand

>  <RI>
0

>  <Rbt.Current_Directory>
/home/itssahil/PROJECTS/Mol_Feturizer/New_Systems/rnas/3GX2

>  <Rbt.Executable>
rbdock ($Id: //depot/dev/client3/rdock/2013.1/src/exe/rbdock.cxx#4 $)

>  <Rbt.Library>
libRbt.so (2013.1, Build901 2013/11/27)

>  <Rbt.Parameter_File>
/export/apps/rDock/src/rDock_2013.1_src/data/scripts/dock_solv.prm

>  <Rbt.Receptor>
prm/pocket_docking_4.prm

>  <SCORE>
-14.2307

>  <SCORE.INTER>
-11.5703

>  <SCORE.INTER.CONST>
1

>  <SCORE.INTER.POLAR>
0

>  <SCORE.INTER.ROT>
7

>  <SCORE.INTER.SOLV>
16.6369

>  <SCORE.INTER.VDW>
-21.5258

>  <SCORE.INTER.norm>
-0.428529

>  <SCORE.INTRA>
-2.6604

>  <SCORE.INTRA.DIHEDRAL>
-8.27494

>  <SCORE.INTRA.DIHEDRAL.0>
13.9704

>  <SCORE.INTRA.POLAR>
0

>  <SCORE.INTRA.POLAR.0>
0

>  <SCORE.INTRA.REPUL>
0

>  <SCORE.INTRA.REPUL.0>
0

>  <SCORE.INTRA.SOLV>
3.45637

>  <SCORE.INTRA.SOLV.lig_0>
-70.9758

>  <SCORE.INTRA.VDW>
-0.251111

>  <SCORE.INTRA.VDW.0>
-2.70686

>  <SCORE.INTRA.norm>
-0.0985333

>  <SCORE.RESTR>
0

>  <SCORE.RESTR.CAVITY>
0

>  <SCORE.RESTR.norm>
0

>  <SCORE.SYSTEM>
0

>  <SCORE.SYSTEM.CONST>
0

>  <SCORE.SYSTEM.DIHEDRAL>
0

>  <SCORE.SYSTEM.SOLV>
0

>  <SCORE.SYSTEM.norm>
0

>  <SCORE.heavy>
27

>  <SCORE.norm>
-0.527062

>  <RMSD>
1.645

$$$$
ligand
 OpenBabel11021811473D
libRbt.so/2013.1/901 2013/11/27
 27 29  0  0  0  0  0  0  0  0999 V2000
   48.1419   54.1560   27.8713 N   0  0  0  0  0  0  0  0  0  0  0  0
   47.9878   55.5975   28.0540 C   0  0  2  0  0  0  0  0  0  0  0  0
   48.7113   56.4389   27.0006 C   0  0  0  0  0  0  0  0  0  0  0  0
   49.5095   55.9112   26.2996 O   0  0  0  0  0  0  0  0  0  0  0  0
   48.2356   56.0932   29.4941 C   0  0  0  0  0  0  0  0  0  0  0  0
   47.1963   55.7685   30.6030 C   0  0  0  0  0  0  0  0  0  0  0  0
   47.0562   54.2688   30.9767 C   0  0  2  0  0  0  0  0  0  0  0  0
   45.8634   53.9903   31.7765 N   0  0  0  0  0  0  0  0  0  0  0  0
   48.3631   53.6940   31.6053 C   0  0  0  0  0  0  0  0  0  0  0  0
   49.0163   54.4607   32.8044 C   0  0  1  0  0  0  0  0  0  0  0  0
   49.7577   55.6891   32.5421 O   0  0  0  0  0  0  0  0  0  0  0  0
   48.0886   54.8141   34.0003 C   0  0  1  0  0  0  0  0  0  0  0  0
   47.5640   53.7332   34.7824 O   0  0  0  0  0  0  0  0  0  0  0  0
   48.7884   56.0074   34.7216 C   0  0  1  0  0  0  0  0  0  0  0  0
   49.3579   55.7730   35.9872 O   0  0  0  0  0  0  0  0  0  0  0  0
   49.6642   56.6040   33.6154 C   0  0  2  0  0  0  0  0  0  0  0  0
   48.1042   57.6329   26.5630 O   0  0  0  0  0  0  0  0  0  0  0  0
   45.3478   59.5686   32.1777 N   0  0  0  0  0  0  0  0  0  0  0  0
   45.3637   58.2294   32.5842 C   0  0  0  0  0  0  0  0  0  0  0  0
   46.6278   57.5868   32.9364 N   0  0  0  0  0  0  0  0  0  0  0  0
   47.7991   58.2933   32.8715 C   0  0  0  0  0  0  0  0  0  0  0  0
   47.7744   59.6400   32.4597 C   0  0  0  0  0  0  0  0  0  0  0  0
   46.5143   60.2796   32.1080 C   0  0  0  0  0  0  0  0  0  0  0  0
   46.4865   61.6789   31.6808 N   0  0  0  0  0  0  0  0  0  0  0  0
   49.1287   60.1364   32.4799 N   0  0  0  0  0  0  0  0  0  0  0  0
   49.9687   59.0799   32.9037 C   0  0  0  0  0  0  0  0  0  0  0  0
   49.1640   57.9309   33.1529 N   0  0  0  0  0  0  0  0  0  0  0  0
  2  1  1  1  0  0  0
  2  3  1  0  0  0  0
  2  5  1  0  0  0  0
  3  4  1  0  0  0  0
  3 17  1  0  0  0  0
  5  6  1  0  0  0  0
  7  6  1  1  0  0  0
  7  8  1  0  0  0  0
  7  9  1  0  0  0  0
 10  9  1  6  0  0  0
 10 11  1  0  0  0  0
 10 12  1  0  0  0  0
 11 16  1  0  0  0  0
 12 13  1  1  0  0  0
 12 14  1  0  0  0  0
 14 15  1  1  0  0  0
 14 16  1  0  0  0  0
 16 27  1  6  0  0  0
 18 19  2  0  0  0  0
 18 23  1  0  0  0  0
 19 20  1  0  0  0  0
 20 21  2  0  0  0  0
 21 22  1  0  0  0  0
 21 27  1  0  0  0  0
 22 23  2  0  0  0  0
 22 25  1  0  0  0  0
 23 24  1  0  0  0  0
 25 26  2  0  0  0  0
 26 27  1  0  0  0  0
M  END
>  <CHROM.1>
-13.52221432,-71.50106942,66.44380801,-166.29306665,51.47682588,-75.71319388
79.05894871,48.01229610,56.71410701,31.59577453,-1.42207685,-1.39557406,1.53297182

>  <Name>
ligand

>  <RI>
0

>  <Rbt.Current_Directory>
/home/itssahil/PROJECTS/Mol_Feturizer/New_Systems/rnas/3GX2

>  <Rbt.Executable>
rbdock ($Id: //depot/dev/client3/rdock/2013.1/src/exe/rbdock.cxx#4 $)

>  <Rbt.Library>
libRbt.so (2013.1, Build901 2013/11/27)

>  <Rbt.Parameter_File>
/export/apps/rDock/src/rDock_2013.1_src/data/scripts/dock_solv.prm

>  <Rbt.Receptor>
prm/pocket_docking_4.prm

>  <SCORE>
-12.9765

>  <SCORE.INTER>
-9.47819

>  <SCORE.INTER.CONST>
1

>  <SCORE.INTER.POLAR>
0

>  <SCORE.INTER.ROT>
7

>  <SCORE.INTER.SOLV>
17.8919

>  <SCORE.INTER.VDW>
-20.5494

>  <SCORE.INTER.norm>
-0.351044

>  <SCORE.INTRA>
-3.49829

>  <SCORE.INTRA.DIHEDRAL>
-7.01417

>  <SCORE.INTRA.DIHEDRAL.0>
13.9704

>  <SCORE.INTRA.POLAR>
0

>  <SCORE.INTRA.POLAR.0>
0

>  <SCORE.INTRA.REPUL>
0

>  <SCORE.INTRA.REPUL.0>
0

>  <SCORE.INTRA.SOLV>
3.19799

>  <SCORE.INTRA.SOLV.lig_0>
-70.9758

>  <SCORE.INTRA.VDW>
-1.5902

>  <SCORE.INTRA.VDW.0>
-2.70686

>  <SCORE.INTRA.norm>
-0.129566

>  <SCORE.RESTR>
0

>  <SCORE.RESTR.CAVITY>
0

>  <SCORE.RESTR.norm>
0

>  <SCORE.SYSTEM>
0

>  <SCORE.SYSTEM.CONST>
0

>  <SCORE.SYSTEM.DIHEDRAL>
0

>  <SCORE.SYSTEM.SOLV>
0

>  <SCORE.SYSTEM.norm>
0

>  <SCORE.heavy>
27

>  <SCORE.norm>
-0.48061

>  <RMSD>
1.646

$$$$
ligand
 OpenBabel11021811473D
libRbt.so/2013.1/901 2013/11/27
 27 29  0  0  0  0  0  0  0  0999 V2000
   51.0070   54.4756   27.6227 N   0  0  0  0  0  0  0  0  0  0  0  0
   49.6703   54.7489   28.1455 C   0  0  2  0  0  0  0  0  0  0  0  0
   48.7176   55.3716   27.1228 C   0  0  0  0  0  0  0  0  0  0  0  0
   47.5573   55.3984   27.3675 O   0  0  0  0  0  0  0  0  0  0  0  0
   49.6482   55.4738   29.5076 C   0  0  0  0  0  0  0  0  0  0  0  0
   48.3077   55.6009   30.2835 C   0  0  0  0  0  0  0  0  0  0  0  0
   47.6844   54.2671   30.7743 C   0  0  2  0  0  0  0  0  0  0  0  0
   46.3395   54.4357   31.3246 N   0  0  0  0  0  0  0  0  0  0  0  0
   48.6417   53.4845   31.7254 C   0  0  0  0  0  0  0  0  0  0  0  0
   49.1899   54.2122   32.9990 C   0  0  1  0  0  0  0  0  0  0  0  0
   49.9551   55.4435   32.8390 O   0  0  0  0  0  0  0  0  0  0  0  0
   48.1622   54.5356   34.1194 C   0  0  1  0  0  0  0  0  0  0  0  0
   47.5680   53.4353   34.8204 O   0  0  0  0  0  0  0  0  0  0  0  0
   48.8000   55.7034   34.9341 C   0  0  1  0  0  0  0  0  0  0  0  0
   49.2559   55.4289   36.2370 O   0  0  0  0  0  0  0  0  0  0  0  0
   49.7709   56.3272   33.9267 C   0  0  2  0  0  0  0  0  0  0  0  0
   49.2397   56.2950   26.1952 O   0  0  0  0  0  0  0  0  0  0  0  0
   45.6201   59.3393   32.1419 N   0  0  0  0  0  0  0  0  0  0  0  0
   45.5986   57.9861   32.4986 C   0  0  0  0  0  0  0  0  0  0  0  0
   46.8205   57.3319   32.9612 N   0  0  0  0  0  0  0  0  0  0  0  0
   47.9886   58.0412   33.0485 C   0  0  0  0  0  0  0  0  0  0  0  0
   48.0019   59.4022   32.6859 C   0  0  0  0  0  0  0  0  0  0  0  0
   46.7840   60.0533   32.2242 C   0  0  0  0  0  0  0  0  0  0  0  0
   46.7957   61.4674   31.8479 N   0  0  0  0  0  0  0  0  0  0  0  0
   49.3438   59.8986   32.8698 N   0  0  0  0  0  0  0  0  0  0  0  0
   50.1385   58.8279   33.3427 C   0  0  0  0  0  0  0  0  0  0  0  0
   49.3170   57.6698   33.4618 N   0  0  0  0  0  0  0  0  0  0  0  0
  2  1  1  6  0  0  0
  2  3  1  0  0  0  0
  2  5  1  0  0  0  0
  3  4  1  0  0  0  0
  3 17  1  0  0  0  0
  5  6  1  0  0  0  0
  7  6  1  1  0  0  0
  7  8  1  0  0  0  0
  7  9  1  0  0  0  0
 10  9  1  6  0  0  0
 10 11  1  0  0  0  0
 10 12  1  0  0  0  0
 11 16  1  0  0  0  0
 12 13  1  1  0  0  0
 12 14  1  0  0  0  0
 14 15  1  1  0  0  0
 14 16  1  0  0  0  0
 16 27  1  6  0  0  0
 18 19  2  0  0  0  0
 18 23  1  0  0  0  0
 19 20  1  0  0  0  0
 20 21  2  0  0  0  0
 21 22  1  0  0  0  0
 21 27  1  0  0  0  0
 22 23  2  0  0  0  0
 22 25  1  0  0  0  0
 23 24  1  0  0  0  0
 25 26  2  0  0  0  0
 26 27  1  0  0  0  0
M  END
>  <CHROM.1>
166.05644016,-169.44082576,64.95445450,-171.77447309,55.31056911,-58.50628902
77.75693676,48.38573868,56.39700593,31.70792674,-1.02946641,-1.29183339,1.71544952

>  <Name>
ligand

>  <RI>
0

>  <Rbt.Current_Directory>
/home/itssahil/PROJECTS/Mol_Feturizer/New_Systems/rnas/3GX2

>  <Rbt.Executable>
rbdock ($Id: //depot/dev/client3/rdock/2013.1/src/exe/rbdock.cxx#4 $)

>  <Rbt.Library>
libRbt.so (2013.1, Build901 2013/11/27)

>  <Rbt.Parameter_File>
/export/apps/rDock/src/rDock_2013.1_src/data/scripts/dock_solv.prm

>  <Rbt.Receptor>
prm/pocket_docking_4.prm

>  <SCORE>
-14.3485

>  <SCORE.INTER>
-9.88154

>  <SCORE.INTER.CONST>
1

>  <SCORE.INTER.POLAR>
0

>  <SCORE.INTER.ROT>
7

>  <SCORE.INTER.SOLV>
17.2143

>  <SCORE.INTER.VDW>
-20.5925

>  <SCORE.INTER.norm>
-0.365983

>  <SCORE.INTRA>
-4.46691

>  <SCORE.INTRA.DIHEDRAL>
-8.56628

>  <SCORE.INTRA.DIHEDRAL.0>
13.9704

>  <SCORE.INTRA.POLAR>
0

>  <SCORE.INTRA.POLAR.0>
0

>  <SCORE.INTRA.REPUL>
0

>  <SCORE.INTRA.REPUL.0>
0

>  <SCORE.INTRA.SOLV>
1.9901

>  <SCORE.INTRA.SOLV.lig_0>
-70.9758

>  <SCORE.INTRA.VDW>
-1.17882

>  <SCORE.INTRA.VDW.0>
-2.70686

>  <SCORE.INTRA.norm>
-0.165441

>  <SCORE.RESTR>
0

>  <SCORE.RESTR.CAVITY>
0

>  <SCORE.RESTR.norm>
0

>  <SCORE.SYSTEM>
0

>  <SCORE.SYSTEM.CONST>
0

>  <SCORE.SYSTEM.DIHEDRAL>
0

>  <SCORE.SYSTEM.SOLV>
0

>  <SCORE.SYSTEM.norm>
0

>  <SCORE.heavy>
27

>  <SCORE.norm>
-0.531424

>  <RMSD>
1.722

$$$$
ligand
 OpenBabel11021811473D
libRbt.so/2013.1/901 2013/11/27
 27 29  0  0  0  0  0  0  0  0999 V2000
   46.4513   57.3770   27.3106 N   0  0  0  0  0  0  0  0  0  0  0  0
   46.9625   57.1765   28.6647 C   0  0  2  0  0  0  0  0  0  0  0  0
   48.0480   58.1743   29.0739 C   0  0  0  0  0  0  0  0  0  0  0  0
   48.6310   57.9964   30.0914 O   0  0  0  0  0  0  0  0  0  0  0  0
   47.3286   55.7164   29.0042 C   0  0  0  0  0  0  0  0  0  0  0  0
   48.6229   55.0954   28.4091 C   0  0  0  0  0  0  0  0  0  0  0  0
   49.9268   55.3624   29.2071 C   0  0  2  0  0  0  0  0  0  0  0  0
   51.1006   55.5107   28.3467 N   0  0  0  0  0  0  0  0  0  0  0  0
   50.1363   54.3285   30.3561 C   0  0  0  0  0  0  0  0  0  0  0  0
   49.7094   54.7282   31.8089 C   0  0  1  0  0  0  0  0  0  0  0  0
   50.1783   55.9928   32.3640 O   0  0  0  0  0  0  0  0  0  0  0  0
   48.1876   54.7052   32.1244 C   0  0  1  0  0  0  0  0  0  0  0  0
   47.5218   53.4356   32.1173 O   0  0  0  0  0  0  0  0  0  0  0  0
   48.0106   55.6518   33.3519 C   0  0  1  0  0  0  0  0  0  0  0  0
   47.6836   55.0724   34.5922 O   0  0  0  0  0  0  0  0  0  0  0  0
   49.2427   56.5575   33.2604 C   0  0  2  0  0  0  0  0  0  0  0  0
   48.6527   58.9568   28.0701 O   0  0  0  0  0  0  0  0  0  0  0  0
   45.2691   60.0664   32.0838 N   0  0  0  0  0  0  0  0  0  0  0  0
   45.1376   58.7186   32.4372 C   0  0  0  0  0  0  0  0  0  0  0  0
   46.3262   57.9177   32.7219 N   0  0  0  0  0  0  0  0  0  0  0  0
   47.5706   58.4840   32.6454 C   0  0  0  0  0  0  0  0  0  0  0  0
   47.6941   59.8407   32.2872 C   0  0  0  0  0  0  0  0  0  0  0  0
   46.5092   60.6380   32.0029 C   0  0  0  0  0  0  0  0  0  0  0  0
   46.6354   62.0478   31.6316 N   0  0  0  0  0  0  0  0  0  0  0  0
   49.0977   60.1734   32.2815 N   0  0  0  0  0  0  0  0  0  0  0  0
   49.8183   59.0086   32.6356 C   0  0  0  0  0  0  0  0  0  0  0  0
   48.8904   57.9524   32.8668 N   0  0  0  0  0  0  0  0  0  0  0  0
  2  1  1  6  0  0  0
  2  3  1  0  0  0  0
  2  5  1  0  0  0  0
  3  4  1  0  0  0  0
  3 17  1  0  0  0  0
  5  6  1  0  0  0  0
  7  6  1  6  0  0  0
  7  8  1  0  0  0  0
  7  9  1  0  0  0  0
 10  9  1  6  0  0  0
 10 11  1  0  0  0  0
 10 12  1  0  0  0  0
 11 16  1  0  0  0  0
 12 13  1  1  0  0  0
 12 14  1  0  0  0  0
 14 15  1  1  0  0  0
 14 16  1  0  0  0  0
 16 27  1  6  0  0  0
 18 19  2  0  0  0  0
 18 23  1  0  0  0  0
 19 20  1  0  0  0  0
 20 21  2  0  0  0  0
 21 22  1  0  0  0  0
 21 27  1  0  0  0  0
 22 23  2  0  0  0  0
 22 25  1  0  0  0  0
 23 24  1  0  0  0  0
 25 26  2  0  0  0  0
 26 27  1  0  0  0  0
M  END
>  <CHROM.1>
-171.35610951,74.36032499,85.34427675,-145.52114373,-97.88392522,-50.93791134
126.09514929,48.14724718,57.22540184,31.15179880,0.04428419,1.16115624,-1.33097059

>  <Name>
ligand

>  <RI>
0

>  <Rbt.Current_Directory>
/home/itssahil/PROJECTS/Mol_Feturizer/New_Systems/rnas/3GX2

>  <Rbt.Executable>
rbdock ($Id: //depot/dev/client3/rdock/2013.1/src/exe/rbdock.cxx#4 $)

>  <Rbt.Library>
libRbt.so (2013.1, Build901 2013/11/27)

>  <Rbt.Parameter_File>
/export/apps/rDock/src/rDock_2013.1_src/data/scripts/dock_solv.prm

>  <Rbt.Receptor>
prm/pocket_docking_2.prm

>  <SCORE>
-8.13495

>  <SCORE.INTER>
-7.31957

>  <SCORE.INTER.CONST>
1

>  <SCORE.INTER.POLAR>
0

>  <SCORE.INTER.ROT>
7

>  <SCORE.INTER.SOLV>
23.351

>  <SCORE.INTER.VDW>
-20.93

>  <SCORE.INTER.norm>
-0.271095

>  <SCORE.INTRA>
-0.831104

>  <SCORE.INTRA.DIHEDRAL>
0.727324

>  <SCORE.INTRA.DIHEDRAL.0>
13.9704

>  <SCORE.INTRA.POLAR>
0

>  <SCORE.INTRA.POLAR.0>
0

>  <SCORE.INTRA.REPUL>
0

>  <SCORE.INTRA.REPUL.0>
0

>  <SCORE.INTRA.SOLV>
2.43938

>  <SCORE.INTRA.SOLV.lig_0>
-70.9758

>  <SCORE.INTRA.VDW>
-2.41446

>  <SCORE.INTRA.VDW.0>
-2.70686

>  <SCORE.INTRA.norm>
-0.0307816

>  <SCORE.RESTR>
0.0157281

>  <SCORE.RESTR.CAVITY>
0.0157281

>  <SCORE.RESTR.norm>
0.000582523

>  <SCORE.SYSTEM>
0

>  <SCORE.SYSTEM.CONST>
0

>  <SCORE.SYSTEM.DIHEDRAL>
0

>  <SCORE.SYSTEM.SOLV>
0

>  <SCORE.SYSTEM.norm>
0

>  <SCORE.heavy>
27

>  <SCORE.norm>
-0.301294

>  <RMSD>
1.738

$$$$
ligand
 OpenBabel11021811473D
libRbt.so/2013.1/901 2013/11/27
 27 29  0  0  0  0  0  0  0  0999 V2000
   48.8793   55.8381   24.4811 N   0  0  0  0  0  0  0  0  0  0  0  0
   48.1816   55.5410   25.7301 C   0  0  2  0  0  0  0  0  0  0  0  0
   47.3736   56.7155   26.2859 C   0  0  0  0  0  0  0  0  0  0  0  0
   46.3085   56.5000   26.7614 O   0  0  0  0  0  0  0  0  0  0  0  0
   49.0483   54.8465   26.8013 C   0  0  0  0  0  0  0  0  0  0  0  0
   48.3822   54.3362   28.1094 C   0  0  0  0  0  0  0  0  0  0  0  0
   49.3556   53.8469   29.2146 C   0  0  2  0  0  0  0  0  0  0  0  0
   50.0910   52.6413   28.8327 N   0  0  0  0  0  0  0  0  0  0  0  0
   48.6559   53.7234   30.6033 C   0  0  0  0  0  0  0  0  0  0  0  0
   49.4183   54.2326   31.8729 C   0  0  1  0  0  0  0  0  0  0  0  0
   50.1259   55.5065   31.8126 O   0  0  0  0  0  0  0  0  0  0  0  0
   48.6083   54.2998   33.1978 C   0  0  1  0  0  0  0  0  0  0  0  0
   48.1659   53.0644   33.7750 O   0  0  0  0  0  0  0  0  0  0  0  0
   49.3694   55.3286   34.0902 C   0  0  1  0  0  0  0  0  0  0  0  0
   50.0589   54.8438   35.2173 O   0  0  0  0  0  0  0  0  0  0  0  0
   50.1323   56.1689   33.0612 C   0  0  2  0  0  0  0  0  0  0  0  0
   48.0627   57.8861   26.6608 O   0  0  0  0  0  0  0  0  0  0  0  0
   47.0661   59.5954   30.1726 N   0  0  0  0  0  0  0  0  0  0  0  0
   47.3365   58.2513   29.8916 C   0  0  0  0  0  0  0  0  0  0  0  0
   48.1908   57.4743   30.7867 N   0  0  0  0  0  0  0  0  0  0  0  0
   48.7273   58.0584   31.9030 C   0  0  0  0  0  0  0  0  0  0  0  0
   48.4517   59.4122   32.1775 C   0  0  0  0  0  0  0  0  0  0  0  0
   47.6008   60.1862   31.2845 C   0  0  0  0  0  0  0  0  0  0  0  0
   47.3125   61.5925   31.5684 N   0  0  0  0  0  0  0  0  0  0  0  0
   49.1355   59.7672   33.3970 N   0  0  0  0  0  0  0  0  0  0  0  0
   49.8263   58.6201   33.8534 C   0  0  0  0  0  0  0  0  0  0  0  0
   49.5844   57.5512   32.9430 N   0  0  0  0  0  0  0  0  0  0  0  0
  2  1  1  6  0  0  0
  2  3  1  0  0  0  0
  2  5  1  0  0  0  0
  3  4  1  0  0  0  0
  3 17  1  0  0  0  0
  5  6  1  0  0  0  0
  7  6  1  6  0  0  0
  7  8  1  0  0  0  0
  7  9  1  0  0  0  0
 10  9  1  6  0  0  0
 10 11  1  0  0  0  0
 10 12  1  0  0  0  0
 11 16  1  0  0  0  0
 12 13  1  1  0  0  0
 12 14  1  0  0  0  0
 14 15  1  1  0  0  0
 14 16  1  0  0  0  0
 16 27  1  6  0  0  0
 18 19  2  0  0  0  0
 18 23  1  0  0  0  0
 19 20  1  0  0  0  0
 20 21  2  0  0  0  0
 21 22  1  0  0  0  0
 21 27  1  0  0  0  0
 22 23  2  0  0  0  0
 22 25  1  0  0  0  0
 23 24  1  0  0  0  0
 25 26  2  0  0  0  0
 26 27  1  0  0  0  0
M  END
>  <CHROM.1>
139.91342132,-173.18987517,-171.16534606,-66.30018671,-137.50735802,43.57449998
21.10793937,48.64538376,56.44707989,30.51071088,-2.12600990,-1.28440257,0.90188656

>  <Name>
ligand

>  <RI>
0

>  <Rbt.Current_Directory>
/home/itssahil/PROJECTS/Mol_Feturizer/New_Systems/rnas/3GX2

>  <Rbt.Executable>
rbdock ($Id: //depot/dev/client3/rdock/2013.1/src/exe/rbdock.cxx#4 $)

>  <Rbt.Library>
libRbt.so (2013.1, Build901 2013/11/27)

>  <Rbt.Parameter_File>
/export/apps/rDock/src/rDock_2013.1_src/data/scripts/dock_solv.prm

>  <Rbt.Receptor>
prm/pocket_docking_4.prm

>  <SCORE>
-8.40513

>  <SCORE.INTER>
-6.21384

>  <SCORE.INTER.CONST>
1

>  <SCORE.INTER.POLAR>
0

>  <SCORE.INTER.ROT>
7

>  <SCORE.INTER.SOLV>
25.9427

>  <SCORE.INTER.VDW>
-21.0568

>  <SCORE.INTER.norm>
-0.230142

>  <SCORE.INTRA>
-2.1913

>  <SCORE.INTRA.DIHEDRAL>
-3.05881

>  <SCORE.INTRA.DIHEDRAL.0>
13.9704

>  <SCORE.INTRA.POLAR>
0

>  <SCORE.INTRA.POLAR.0>
0

>  <SCORE.INTRA.REPUL>
0

>  <SCORE.INTRA.REPUL.0>
0

>  <SCORE.INTRA.SOLV>
0.116207

>  <SCORE.INTRA.SOLV.lig_0>
-70.9758

>  <SCORE.INTRA.VDW>
-0.719993

>  <SCORE.INTRA.VDW.0>
-2.70686

>  <SCORE.INTRA.norm>
-0.0811591

>  <SCORE.RESTR>
0

>  <SCORE.RESTR.CAVITY>
0

>  <SCORE.RESTR.norm>
0

>  <SCORE.SYSTEM>
0

>  <SCORE.SYSTEM.CONST>
0

>  <SCORE.SYSTEM.DIHEDRAL>
0

>  <SCORE.SYSTEM.SOLV>
0

>  <SCORE.SYSTEM.norm>
0

>  <SCORE.heavy>
27

>  <SCORE.norm>
-0.311301

>  <RMSD>
1.764

$$$$
ligand
 OpenBabel11021811473D
libRbt.so/2013.1/901 2013/11/27
 27 29  0  0  0  0  0  0  0  0999 V2000
   48.5225   57.7028   29.1124 N   0  0  0  0  0  0  0  0  0  0  0  0
   48.9767   56.8291   28.0329 C   0  0  2  0  0  0  0  0  0  0  0  0
   48.1422   56.9342   26.7547 C   0  0  0  0  0  0  0  0  0  0  0  0
   48.5314   56.3924   25.7740 O   0  0  0  0  0  0  0  0  0  0  0  0
   49.2467   55.3702   28.4569 C   0  0  0  0  0  0  0  0  0  0  0  0
   50.2782   55.0805   29.5825 C   0  0  0  0  0  0  0  0  0  0  0  0
   50.2516   53.6431   30.1671 C   0  0  2  0  0  0  0  0  0  0  0  0
   50.1342   52.6114   29.1366 N   0  0  0  0  0  0  0  0  0  0  0  0
   49.1996   53.4910   31.3087 C   0  0  0  0  0  0  0  0  0  0  0  0
   49.3652   54.3624   32.5993 C   0  0  1  0  0  0  0  0  0  0  0  0
   49.3884   55.8155   32.4766 O   0  0  0  0  0  0  0  0  0  0  0  0
   48.3742   54.0861   33.7644 C   0  0  1  0  0  0  0  0  0  0  0  0
   48.4588   52.8184   34.4285 O   0  0  0  0  0  0  0  0  0  0  0  0
   48.3696   55.3936   34.6156 C   0  0  1  0  0  0  0  0  0  0  0  0
   48.9672   55.3556   35.8893 O   0  0  0  0  0  0  0  0  0  0  0  0
   48.8357   56.4521   33.6111 C   0  0  2  0  0  0  0  0  0  0  0  0
   46.7685   57.2254   26.8725 O   0  0  0  0  0  0  0  0  0  0  0  0
   47.5320   61.2782   31.4906 N   0  0  0  0  0  0  0  0  0  0  0  0
   48.8143   60.7522   31.6853 C   0  0  0  0  0  0  0  0  0  0  0  0
   48.9790   59.4255   32.2751 N   0  0  0  0  0  0  0  0  0  0  0  0
   47.8798   58.6933   32.6368 C   0  0  0  0  0  0  0  0  0  0  0  0
   46.5930   59.2308   32.4391 C   0  0  0  0  0  0  0  0  0  0  0  0
   46.4296   60.5534   31.8520 C   0  0  0  0  0  0  0  0  0  0  0  0
   45.0935   61.1131   31.6450 N   0  0  0  0  0  0  0  0  0  0  0  0
   45.6300   58.2625   32.9037 N   0  0  0  0  0  0  0  0  0  0  0  0
   46.3448   57.1402   33.3846 C   0  0  0  0  0  0  0  0  0  0  0  0
   47.7391   57.3870   33.2261 N   0  0  0  0  0  0  0  0  0  0  0  0
  2  1  1  1  0  0  0
  2  3  1  0  0  0  0
  2  5  1  0  0  0  0
  3  4  1  0  0  0  0
  3 17  1  0  0  0  0
  5  6  1  0  0  0  0
  7  6  1  6  0  0  0
  7  8  1  0  0  0  0
  7  9  1  0  0  0  0
 10  9  1  6  0  0  0
 10 11  1  0  0  0  0
 10 12  1  0  0  0  0
 11 16  1  0  0  0  0
 12 13  1  1  0  0  0
 12 14  1  0  0  0  0
 14 15  1  1  0  0  0
 14 16  1  0  0  0  0
 16 27  1  6  0  0  0
 18 19  2  0  0  0  0
 18 23  1  0  0  0  0
 19 20  1  0  0  0  0
 20 21  2  0  0  0  0
 21 22  1  0  0  0  0
 21 27  1  0  0  0  0
 22 23  2  0  0  0  0
 22 25  1  0  0  0  0
 23 24  1  0  0  0  0
 25 26  2  0  0  0  0
 26 27  1  0  0  0  0
M  END
>  <CHROM.1>
170.67371384,-57.77867470,166.47923172,43.59504487,-61.59189796,58.42242240
-76.27579928,48.27420949,56.71764130,31.30185305,0.19956953,1.17471467,-1.37168983

>  <Name>
ligand

>  <RI>
0

>  <Rbt.Current_Directory>
/home/itssahil/PROJECTS/Mol_Feturizer/New_Systems/rnas/3GX2

>  <Rbt.Executable>
rbdock ($Id: //depot/dev/client3/rdock/2013.1/src/exe/rbdock.cxx#4 $)

>  <Rbt.Library>
libRbt.so (2013.1, Build901 2013/11/27)

>  <Rbt.Parameter_File>
/export/apps/rDock/src/rDock_2013.1_src/data/scripts/dock_solv.prm

>  <Rbt.Receptor>
prm/pocket_docking_3.prm

>  <SCORE>
-14.228

>  <SCORE.INTER>
-11.2953

>  <SCORE.INTER.CONST>
1

>  <SCORE.INTER.POLAR>
0

>  <SCORE.INTER.ROT>
7

>  <SCORE.INTER.SOLV>
23.5229

>  <SCORE.INTER.VDW>
-23.6378

>  <SCORE.INTER.norm>
-0.418345

>  <SCORE.INTRA>
-2.9327

>  <SCORE.INTRA.DIHEDRAL>
-7.58207

>  <SCORE.INTRA.DIHEDRAL.0>
13.9704

>  <SCORE.INTRA.POLAR>
0

>  <SCORE.INTRA.POLAR.0>
0

>  <SCORE.INTRA.REPUL>
0

>  <SCORE.INTRA.REPUL.0>
0

>  <SCORE.INTRA.SOLV>
0.860013

>  <SCORE.INTRA.SOLV.lig_0>
-70.9758

>  <SCORE.INTRA.VDW>
0.428328

>  <SCORE.INTRA.VDW.0>
-2.70686

>  <SCORE.INTRA.norm>
-0.108618

>  <SCORE.RESTR>
0

>  <SCORE.RESTR.CAVITY>
0

>  <SCORE.RESTR.norm>
0

>  <SCORE.SYSTEM>
0

>  <SCORE.SYSTEM.CONST>
0

>  <SCORE.SYSTEM.DIHEDRAL>
0

>  <SCORE.SYSTEM.SOLV>
0

>  <SCORE.SYSTEM.norm>
0

>  <SCORE.heavy>
27

>  <SCORE.norm>
-0.526963

>  <RMSD>
1.814

$$$$
ligand
 OpenBabel11021811473D
libRbt.so/2013.1/901 2013/11/27
 27 29  0  0  0  0  0  0  0  0999 V2000
   51.4430   53.9707   26.4296 N   0  0  0  0  0  0  0  0  0  0  0  0
   50.4286   54.2088   27.4539 C   0  0  2  0  0  0  0  0  0  0  0  0
   49.2624   55.0807   26.9838 C   0  0  0  0  0  0  0  0  0  0  0  0
   49.5003   56.1324   26.4897 O   0  0  0  0  0  0  0  0  0  0  0  0
   50.9885   54.6413   28.8252 C   0  0  0  0  0  0  0  0  0  0  0  0
   50.0362   54.7113   30.0513 C   0  0  0  0  0  0  0  0  0  0  0  0
   49.5564   53.3455   30.6106 C   0  0  2  0  0  0  0  0  0  0  0  0
   48.9773   52.4809   29.5824 N   0  0  0  0  0  0  0  0  0  0  0  0
   48.6379   53.5108   31.8605 C   0  0  0  0  0  0  0  0  0  0  0  0
   49.2041   54.2656   33.1102 C   0  0  1  0  0  0  0  0  0  0  0  0
   49.9431   55.5077   32.9147 O   0  0  0  0  0  0  0  0  0  0  0  0
   48.1986   54.5866   34.2512 C   0  0  1  0  0  0  0  0  0  0  0  0
   47.6415   53.4859   34.9815 O   0  0  0  0  0  0  0  0  0  0  0  0
   48.8352   55.7765   35.0341 C   0  0  1  0  0  0  0  0  0  0  0  0
   49.3278   55.5282   36.3289 O   0  0  0  0  0  0  0  0  0  0  0  0
   49.7699   56.4031   33.9946 C   0  0  2  0  0  0  0  0  0  0  0  0
   48.0310   54.4574   26.6994 O   0  0  0  0  0  0  0  0  0  0  0  0
   45.5409   59.2968   32.1977 N   0  0  0  0  0  0  0  0  0  0  0  0
   45.5548   57.9454   32.5615 C   0  0  0  0  0  0  0  0  0  0  0  0
   46.7937   57.3257   33.0265 N   0  0  0  0  0  0  0  0  0  0  0  0
   47.9430   58.0656   33.1091 C   0  0  0  0  0  0  0  0  0  0  0  0
   47.9207   59.4245   32.7392 C   0  0  0  0  0  0  0  0  0  0  0  0
   46.6859   60.0413   32.2752 C   0  0  0  0  0  0  0  0  0  0  0  0
   46.6605   61.4532   31.8914 N   0  0  0  0  0  0  0  0  0  0  0  0
   49.2494   59.9566   32.9194 N   0  0  0  0  0  0  0  0  0  0  0  0
   50.0719   58.9094   33.3972 C   0  0  0  0  0  0  0  0  0  0  0  0
   49.2809   57.7310   33.5231 N   0  0  0  0  0  0  0  0  0  0  0  0
  2  1  1  6  0  0  0
  2  3  1  0  0  0  0
  2  5  1  0  0  0  0
  3  4  1  0  0  0  0
  3 17  1  0  0  0  0
  5  6  1  0  0  0  0
  7  6  1  6  0  0  0
  7  8  1  0  0  0  0
  7  9  1  0  0  0  0
 10  9  1  6  0  0  0
 10 11  1  0  0  0  0
 10 12  1  0  0  0  0
 11 16  1  0  0  0  0
 12 13  1  1  0  0  0
 12 14  1  0  0  0  0
 14 15  1  1  0  0  0
 14 16  1  0  0  0  0
 16 27  1  6  0  0  0
 18 19  2  0  0  0  0
 18 23  1  0  0  0  0
 19 20  1  0  0  0  0
 20 21  2  0  0  0  0
 21 22  1  0  0  0  0
 21 27  1  0  0  0  0
 22 23  2  0  0  0  0
 22 25  1  0  0  0  0
 23 24  1  0  0  0  0
 25 26  2  0  0  0  0
 26 27  1  0  0  0  0
M  END
>  <CHROM.1>
-53.00779123,-170.60619338,71.27168902,-52.29344573,-58.20339787,44.43971906
76.23261465,48.74430271,56.15383150,31.56488849,0.71467180,1.20988155,-1.30547044

>  <Name>
ligand

>  <RI>
0

>  <Rbt.Current_Directory>
/home/itssahil/PROJECTS/Mol_Feturizer/New_Systems/rnas/3GX2

>  <Rbt.Executable>
rbdock ($Id: //depot/dev/client3/rdock/2013.1/src/exe/rbdock.cxx#4 $)

>  <Rbt.Library>
libRbt.so (2013.1, Build901 2013/11/27)

>  <Rbt.Parameter_File>
/export/apps/rDock/src/rDock_2013.1_src/data/scripts/dock_solv.prm

>  <Rbt.Receptor>
prm/pocket_docking_4.prm

>  <SCORE>
-15.3258

>  <SCORE.INTER>
-12.3842

>  <SCORE.INTER.CONST>
1

>  <SCORE.INTER.POLAR>
0

>  <SCORE.INTER.ROT>
7

>  <SCORE.INTER.SOLV>
19.4846

>  <SCORE.INTER.VDW>
-23.0177

>  <SCORE.INTER.norm>
-0.458675

>  <SCORE.INTRA>
-2.94163

>  <SCORE.INTRA.DIHEDRAL>
-7.75887

>  <SCORE.INTRA.DIHEDRAL.0>
13.9704

>  <SCORE.INTRA.POLAR>
0

>  <SCORE.INTRA.POLAR.0>
0

>  <SCORE.INTRA.REPUL>
0

>  <SCORE.INTRA.REPUL.0>
0

>  <SCORE.INTRA.SOLV>
2.19508

>  <SCORE.INTRA.SOLV.lig_0>
-70.9758

>  <SCORE.INTRA.VDW>
-0.159736

>  <SCORE.INTRA.VDW.0>
-2.70686

>  <SCORE.INTRA.norm>
-0.108949

>  <SCORE.RESTR>
0

>  <SCORE.RESTR.CAVITY>
0

>  <SCORE.RESTR.norm>
0

>  <SCORE.SYSTEM>
0

>  <SCORE.SYSTEM.CONST>
0

>  <SCORE.SYSTEM.DIHEDRAL>
0

>  <SCORE.SYSTEM.SOLV>
0

>  <SCORE.SYSTEM.norm>
0

>  <SCORE.heavy>
27

>  <SCORE.norm>
-0.567624

>  <RMSD>
1.836

$$$$
ligand
 OpenBabel11021811473D
libRbt.so/2013.1/901 2013/11/27
 27 29  0  0  0  0  0  0  0  0999 V2000
   48.0961   58.8625   29.2709 N   0  0  0  0  0  0  0  0  0  0  0  0
   48.6183   57.7215   28.5222 C   0  0  2  0  0  0  0  0  0  0  0  0
   47.6429   57.1575   27.4870 C   0  0  0  0  0  0  0  0  0  0  0  0
   46.4782   57.2539   27.6898 O   0  0  0  0  0  0  0  0  0  0  0  0
   49.2724   56.6271   29.3914 C   0  0  0  0  0  0  0  0  0  0  0  0
   49.8164   55.3381   28.7148 C   0  0  0  0  0  0  0  0  0  0  0  0
   50.3910   54.2638   29.6761 C   0  0  2  0  0  0  0  0  0  0  0  0
   50.9050   53.0879   28.9739 N   0  0  0  0  0  0  0  0  0  0  0  0
   49.3953   53.9061   30.8223 C   0  0  0  0  0  0  0  0  0  0  0  0
   49.5128   54.6743   32.1819 C   0  0  1  0  0  0  0  0  0  0  0  0
   49.4573   56.1317   32.1809 O   0  0  0  0  0  0  0  0  0  0  0  0
   48.5376   54.2486   33.3149 C   0  0  1  0  0  0  0  0  0  0  0  0
   48.6903   52.9363   33.8714 O   0  0  0  0  0  0  0  0  0  0  0  0
   48.4618   55.4782   34.2721 C   0  0  1  0  0  0  0  0  0  0  0  0
   49.0598   55.3663   35.5412 O   0  0  0  0  0  0  0  0  0  0  0  0
   48.8704   56.6406   33.3617 C   0  0  2  0  0  0  0  0  0  0  0  0
   48.0922   56.9935   26.1616 O   0  0  0  0  0  0  0  0  0  0  0  0
   47.2969   61.4377   31.3619 N   0  0  0  0  0  0  0  0  0  0  0  0
   48.6038   60.9500   31.4755 C   0  0  0  0  0  0  0  0  0  0  0  0
   48.8436   59.6253   32.0436 N   0  0  0  0  0  0  0  0  0  0  0  0
   47.7906   58.8575   32.4644 C   0  0  0  0  0  0  0  0  0  0  0  0
   46.4786   59.3567   32.3483 C   0  0  0  0  0  0  0  0  0  0  0  0
   46.2405   60.6772   31.7827 C   0  0  0  0  0  0  0  0  0  0  0  0
   44.8781   61.1971   31.6604 N   0  0  0  0  0  0  0  0  0  0  0  0
   45.5749   58.3564   32.8617 N   0  0  0  0  0  0  0  0  0  0  0  0
   46.3508   57.2536   33.2899 C   0  0  0  0  0  0  0  0  0  0  0  0
   47.7249   57.5438   33.0505 N   0  0  0  0  0  0  0  0  0  0  0  0
  2  1  1  1  0  0  0
  2  3  1  0  0  0  0
  2  5  1  0  0  0  0
  3  4  1  0  0  0  0
  3 17  1  0  0  0  0
  5  6  1  0  0  0  0
  7  6  1  6  0  0  0
  7  8  1  0  0  0  0
  7  9  1  0  0  0  0
 10  9  1  6  0  0  0
 10 11  1  0  0  0  0
 10 12  1  0  0  0  0
 11 16  1  0  0  0  0
 12 13  1  1  0  0  0
 12 14  1  0  0  0  0
 14 15  1  1  0  0  0
 14 16  1  0  0  0  0
 16 27  1  6  0  0  0
 18 19  2  0  0  0  0
 18 23  1  0  0  0  0
 19 20  1  0  0  0  0
 20 21  2  0  0  0  0
 21 22  1  0  0  0  0
 21 27  1  0  0  0  0
 22 23  2  0  0  0  0
 22 25  1  0  0  0  0
 23 24  1  0  0  0  0
 25 26  2  0  0  0  0
 26 27  1  0  0  0  0
M  END
>  <CHROM.1>
-29.51711241,177.67003478,-177.01119818,-179.06145659,-93.21810235,55.21812452
-70.45277315,48.20975788,57.03526248,31.21864322,-2.89997456,-1.11590459
1.76927622

>  <Name>
ligand

>  <RI>
0

>  <Rbt.Current_Directory>
/home/itssahil/PROJECTS/Mol_Feturizer/New_Systems/rnas/3GX2

>  <Rbt.Executable>
rbdock ($Id: //depot/dev/client3/rdock/2013.1/src/exe/rbdock.cxx#4 $)

>  <Rbt.Library>
libRbt.so (2013.1, Build901 2013/11/27)

>  <Rbt.Parameter_File>
/export/apps/rDock/src/rDock_2013.1_src/data/scripts/dock_solv.prm

>  <Rbt.Receptor>
prm/pocket_docking_3.prm

>  <SCORE>
-11.5531

>  <SCORE.INTER>
-9.53631

>  <SCORE.INTER.CONST>
1

>  <SCORE.INTER.POLAR>
0

>  <SCORE.INTER.ROT>
7

>  <SCORE.INTER.SOLV>
26.5645

>  <SCORE.INTER.VDW>
-23.479

>  <SCORE.INTER.norm>
-0.353197

>  <SCORE.INTRA>
-2.01678

>  <SCORE.INTRA.DIHEDRAL>
-6.28255

>  <SCORE.INTRA.DIHEDRAL.0>
13.9704

>  <SCORE.INTRA.POLAR>
0

>  <SCORE.INTRA.POLAR.0>
0

>  <SCORE.INTRA.REPUL>
0

>  <SCORE.INTRA.REPUL.0>
0

>  <SCORE.INTRA.SOLV>
1.56691

>  <SCORE.INTRA.SOLV.lig_0>
-70.9758

>  <SCORE.INTRA.VDW>
0.341037

>  <SCORE.INTRA.VDW.0>
-2.70686

>  <SCORE.INTRA.norm>
-0.0746956

>  <SCORE.RESTR>
0

>  <SCORE.RESTR.CAVITY>
0

>  <SCORE.RESTR.norm>
0

>  <SCORE.SYSTEM>
0

>  <SCORE.SYSTEM.CONST>
0

>  <SCORE.SYSTEM.DIHEDRAL>
0

>  <SCORE.SYSTEM.SOLV>
0

>  <SCORE.SYSTEM.norm>
0

>  <SCORE.heavy>
27

>  <SCORE.norm>
-0.427892

>  <RMSD>
1.843

$$$$
ligand
 OpenBabel11021811473D
libRbt.so/2013.1/901 2013/11/27
 27 29  0  0  0  0  0  0  0  0999 V2000
   47.8825   53.1984   26.1740 N   0  0  0  0  0  0  0  0  0  0  0  0
   48.7157   54.0844   26.9837 C   0  0  2  0  0  0  0  0  0  0  0  0
   49.1237   55.3764   26.2728 C   0  0  0  0  0  0  0  0  0  0  0  0
   49.4750   55.3177   25.1414 O   0  0  0  0  0  0  0  0  0  0  0  0
   49.8972   53.3877   27.6906 C   0  0  0  0  0  0  0  0  0  0  0  0
   49.6186   52.4442   28.8937 C   0  0  0  0  0  0  0  0  0  0  0  0
   48.9630   53.1090   30.1334 C   0  0  2  0  0  0  0  0  0  0  0  0
   47.5591   53.4583   29.9164 N   0  0  0  0  0  0  0  0  0  0  0  0
   49.8119   54.2968   30.6826 C   0  0  0  0  0  0  0  0  0  0  0  0
   49.5699   54.7709   32.1554 C   0  0  1  0  0  0  0  0  0  0  0  0
   50.1113   56.0550   32.5858 O   0  0  0  0  0  0  0  0  0  0  0  0
   48.0985   54.7815   32.6562 C   0  0  1  0  0  0  0  0  0  0  0  0
   47.4292   53.5212   32.7934 O   0  0  0  0  0  0  0  0  0  0  0  0
   48.0799   55.7881   33.8481 C   0  0  1  0  0  0  0  0  0  0  0  0
   47.9048   55.2730   35.1461 O   0  0  0  0  0  0  0  0  0  0  0  0
   49.2969   56.6734   33.5615 C   0  0  2  0  0  0  0  0  0  0  0  0
   48.6334   56.5999   26.7712 O   0  0  0  0  0  0  0  0  0  0  0  0
   45.2696   59.9704   32.0129 N   0  0  0  0  0  0  0  0  0  0  0  0
   45.1803   58.6122   32.3389 C   0  0  0  0  0  0  0  0  0  0  0  0
   46.3775   57.8753   32.7374 N   0  0  0  0  0  0  0  0  0  0  0  0
   47.5886   58.5117   32.7946 C   0  0  0  0  0  0  0  0  0  0  0  0
   47.6700   59.8783   32.4631 C   0  0  0  0  0  0  0  0  0  0  0  0
   46.4767   60.6119   32.0653 C   0  0  0  0  0  0  0  0  0  0  0  0
   46.5590   62.0319   31.7214 N   0  0  0  0  0  0  0  0  0  0  0  0
   49.0454   60.2895   32.6049 N   0  0  0  0  0  0  0  0  0  0  0  0
   49.7917   59.1619   33.0211 C   0  0  0  0  0  0  0  0  0  0  0  0
   48.9071   58.0519   33.1460 N   0  0  0  0  0  0  0  0  0  0  0  0
  2  1  1  6  0  0  0
  2  3  1  0  0  0  0
  2  5  1  0  0  0  0
  3  4  1  0  0  0  0
  3 17  1  0  0  0  0
  5  6  1  0  0  0  0
  7  6  1  6  0  0  0
  7  8  1  0  0  0  0
  7  9  1  0  0  0  0
 10  9  1  6  0  0  0
 10 11  1  0  0  0  0
 10 12  1  0  0  0  0
 11 16  1  0  0  0  0
 12 13  1  1  0  0  0
 12 14  1  0  0  0  0
 14 15  1  1  0  0  0
 14 16  1  0  0  0  0
 16 27  1  6  0  0  0
 18 19  2  0  0  0  0
 18 23  1  0  0  0  0
 19 20  1  0  0  0  0
 20 21  2  0  0  0  0
 21 22  1  0  0  0  0
 21 27  1  0  0  0  0
 22 23  2  0  0  0  0
 22 25  1  0  0  0  0
 23 24  1  0  0  0  0
 25 26  2  0  0  0  0
 26 27  1  0  0  0  0
M  END
>  <CHROM.1>
-43.10029393,-71.88749165,-62.33713090,71.98402530,-160.29050898,-165.75130004
112.14609359,48.28694037,56.33165834,30.92238395,0.68067712,1.29620513,-1.45515954

>  <Name>
ligand

>  <RI>
0

>  <Rbt.Current_Directory>
/home/itssahil/PROJECTS/Mol_Feturizer/New_Systems/rnas/3GX2

>  <Rbt.Executable>
rbdock ($Id: //depot/dev/client3/rdock/2013.1/src/exe/rbdock.cxx#4 $)

>  <Rbt.Library>
libRbt.so (2013.1, Build901 2013/11/27)

>  <Rbt.Parameter_File>
/export/apps/rDock/src/rDock_2013.1_src/data/scripts/dock_solv.prm

>  <Rbt.Receptor>
prm/pocket_docking_4.prm

>  <SCORE>
-11.5437

>  <SCORE.INTER>
-10.9747

>  <SCORE.INTER.CONST>
1

>  <SCORE.INTER.POLAR>
0

>  <SCORE.INTER.ROT>
7

>  <SCORE.INTER.SOLV>
17.4114

>  <SCORE.INTER.VDW>
-21.3869

>  <SCORE.INTER.norm>
-0.406469

>  <SCORE.INTRA>
-0.569017

>  <SCORE.INTRA.DIHEDRAL>
-6.42065

>  <SCORE.INTRA.DIHEDRAL.0>
13.9704

>  <SCORE.INTRA.POLAR>
0

>  <SCORE.INTRA.POLAR.0>
0

>  <SCORE.INTRA.REPUL>
0

>  <SCORE.INTRA.REPUL.0>
0

>  <SCORE.INTRA.SOLV>
4.49358

>  <SCORE.INTRA.SOLV.lig_0>
-70.9758

>  <SCORE.INTRA.VDW>
0.394516

>  <SCORE.INTRA.VDW.0>
-2.70686

>  <SCORE.INTRA.norm>
-0.0210747

>  <SCORE.RESTR>
0

>  <SCORE.RESTR.CAVITY>
0

>  <SCORE.RESTR.norm>
0

>  <SCORE.SYSTEM>
0

>  <SCORE.SYSTEM.CONST>
0

>  <SCORE.SYSTEM.DIHEDRAL>
0

>  <SCORE.SYSTEM.SOLV>
0

>  <SCORE.SYSTEM.norm>
0

>  <SCORE.heavy>
27

>  <SCORE.norm>
-0.427543

>  <RMSD>
1.937

$$$$
ligand
 OpenBabel11021811473D
libRbt.so/2013.1/901 2013/11/27
 27 29  0  0  0  0  0  0  0  0999 V2000
   48.0241   57.4712   28.7674 N   0  0  0  0  0  0  0  0  0  0  0  0
   49.0302   56.5172   29.2286 C   0  0  2  0  0  0  0  0  0  0  0  0
   50.1474   56.2535   28.2169 C   0  0  0  0  0  0  0  0  0  0  0  0
   51.2162   55.9327   28.6191 O   0  0  0  0  0  0  0  0  0  0  0  0
   48.4557   55.2229   29.8416 C   0  0  0  0  0  0  0  0  0  0  0  0
   47.3382   55.3179   30.9174 C   0  0  0  0  0  0  0  0  0  0  0  0
   46.8935   53.9712   31.5475 C   0  0  2  0  0  0  0  0  0  0  0  0
   45.6795   54.0936   32.3545 N   0  0  0  0  0  0  0  0  0  0  0  0
   48.0599   53.2593   32.2999 C   0  0  0  0  0  0  0  0  0  0  0  0
   48.8269   54.0521   33.4115 C   0  0  1  0  0  0  0  0  0  0  0  0
   49.6563   55.1890   33.0285 O   0  0  0  0  0  0  0  0  0  0  0  0
   47.9851   54.5710   34.6107 C   0  0  1  0  0  0  0  0  0  0  0  0
   47.4067   53.5997   35.4923 O   0  0  0  0  0  0  0  0  0  0  0  0
   48.8133   55.7485   35.2120 C   0  0  1  0  0  0  0  0  0  0  0  0
   49.4160   55.5587   36.4696 O   0  0  0  0  0  0  0  0  0  0  0  0
   49.6867   56.1845   34.0314 C   0  0  2  0  0  0  0  0  0  0  0  0
   49.7905   55.9245   26.8940 O   0  0  0  0  0  0  0  0  0  0  0  0
   45.6067   59.2919   32.2469 N   0  0  0  0  0  0  0  0  0  0  0  0
   45.5329   57.9732   32.7100 C   0  0  0  0  0  0  0  0  0  0  0  0
   46.7429   57.2852   33.1544 N   0  0  0  0  0  0  0  0  0  0  0  0
   47.9510   57.9291   33.1207 C   0  0  0  0  0  0  0  0  0  0  0  0
   48.0167   59.2556   32.6514 C   0  0  0  0  0  0  0  0  0  0  0  0
   46.8105   59.9404   32.2079 C   0  0  0  0  0  0  0  0  0  0  0  0
   46.8766   61.3187   31.7210 N   0  0  0  0  0  0  0  0  0  0  0  0
   49.3922   59.6846   32.7210 N   0  0  0  0  0  0  0  0  0  0  0  0
   50.1542   58.6078   33.2323 C   0  0  0  0  0  0  0  0  0  0  0  0
   49.2796   57.5125   33.4878 N   0  0  0  0  0  0  0  0  0  0  0  0
  2  1  1  6  0  0  0
  2  3  1  0  0  0  0
  2  5  1  0  0  0  0
  3  4  1  0  0  0  0
  3 17  1  0  0  0  0
  5  6  1  0  0  0  0
  7  6  1  1  0  0  0
  7  8  1  0  0  0  0
  7  9  1  0  0  0  0
 10  9  1  6  0  0  0
 10 11  1  0  0  0  0
 10 12  1  0  0  0  0
 11 16  1  0  0  0  0
 12 13  1  1  0  0  0
 12 14  1  0  0  0  0
 14 15  1  1  0  0  0
 14 16  1  0  0  0  0
 16 27  1  6  0  0  0
 18 19  2  0  0  0  0
 18 23  1  0  0  0  0
 19 20  1  0  0  0  0
 20 21  2  0  0  0  0
 21 22  1  0  0  0  0
 21 27  1  0  0  0  0
 22 23  2  0  0  0  0
 22 25  1  0  0  0  0
 23 24  1  0  0  0  0
 25 26  2  0  0  0  0
 26 27  1  0  0  0  0
M  END
>  <CHROM.1>
152.18150425,-48.81620593,-175.86903107,-169.06720480,54.56547316,-67.83286003
73.16960364,48.29020412,56.50920797,32.13374996,0.96000982,1.27151416,-0.72664984

>  <Name>
ligand

>  <RI>
0

>  <Rbt.Current_Directory>
/home/itssahil/PROJECTS/Mol_Feturizer/New_Systems/rnas/3GX2

>  <Rbt.Executable>
rbdock ($Id: //depot/dev/client3/rdock/2013.1/src/exe/rbdock.cxx#4 $)

>  <Rbt.Library>
libRbt.so (2013.1, Build901 2013/11/27)

>  <Rbt.Parameter_File>
/export/apps/rDock/src/rDock_2013.1_src/data/scripts/dock_solv.prm

>  <Rbt.Receptor>
prm/pocket_docking_6.prm

>  <SCORE>
-15.5126

>  <SCORE.INTER>
-10.6848

>  <SCORE.INTER.CONST>
1

>  <SCORE.INTER.POLAR>
0

>  <SCORE.INTER.ROT>
7

>  <SCORE.INTER.SOLV>
18.4206

>  <SCORE.INTER.VDW>
-21.5301

>  <SCORE.INTER.norm>
-0.395735

>  <SCORE.INTRA>
-4.8278

>  <SCORE.INTRA.DIHEDRAL>
-7.99714

>  <SCORE.INTRA.DIHEDRAL.0>
13.9704

>  <SCORE.INTRA.POLAR>
0

>  <SCORE.INTRA.POLAR.0>
0

>  <SCORE.INTRA.REPUL>
0

>  <SCORE.INTRA.REPUL.0>
0

>  <SCORE.INTRA.SOLV>
2.0981

>  <SCORE.INTRA.SOLV.lig_0>
-70.9758

>  <SCORE.INTRA.VDW>
-1.87829

>  <SCORE.INTRA.VDW.0>
-2.70686

>  <SCORE.INTRA.norm>
-0.178808

>  <SCORE.RESTR>
0

>  <SCORE.RESTR.CAVITY>
0

>  <SCORE.RESTR.norm>
0

>  <SCORE.SYSTEM>
0

>  <SCORE.SYSTEM.CONST>
0

>  <SCORE.SYSTEM.DIHEDRAL>
0

>  <SCORE.SYSTEM.SOLV>
0

>  <SCORE.SYSTEM.norm>
0

>  <SCORE.heavy>
27

>  <SCORE.norm>
-0.574542

>  <RMSD>
1.965

$$$$
ligand
 OpenBabel11021811473D
libRbt.so/2013.1/901 2013/11/27
 27 29  0  0  0  0  0  0  0  0999 V2000
   47.5457   59.2082   29.4972 N   0  0  0  0  0  0  0  0  0  0  0  0
   48.2811   58.2700   28.6522 C   0  0  2  0  0  0  0  0  0  0  0  0
   47.4912   57.7746   27.4390 C   0  0  0  0  0  0  0  0  0  0  0  0
   46.3348   58.0292   27.3693 O   0  0  0  0  0  0  0  0  0  0  0  0
   48.9849   57.1303   29.4182 C   0  0  0  0  0  0  0  0  0  0  0  0
   49.6614   55.9794   28.6226 C   0  0  0  0  0  0  0  0  0  0  0  0
   50.4235   54.9292   29.4739 C   0  0  2  0  0  0  0  0  0  0  0  0
   51.1830   53.9797   28.6605 N   0  0  0  0  0  0  0  0  0  0  0  0
   49.4980   54.2359   30.5208 C   0  0  0  0  0  0  0  0  0  0  0  0
   49.4321   54.8280   31.9690 C   0  0  1  0  0  0  0  0  0  0  0  0
   49.3621   56.2744   32.1421 O   0  0  0  0  0  0  0  0  0  0  0  0
   48.3240   54.2700   32.9054 C   0  0  1  0  0  0  0  0  0  0  0  0
   48.4177   52.8977   33.3094 O   0  0  0  0  0  0  0  0  0  0  0  0
   48.1132   55.3713   33.9903 C   0  0  1  0  0  0  0  0  0  0  0  0
   48.5446   55.0986   35.3019 O   0  0  0  0  0  0  0  0  0  0  0  0
   48.6233   56.6356   33.2916 C   0  0  2  0  0  0  0  0  0  0  0  0
   48.1959   57.4779   26.2553 O   0  0  0  0  0  0  0  0  0  0  0  0
   47.2744   61.5416   31.3946 N   0  0  0  0  0  0  0  0  0  0  0  0
   48.5615   61.0188   31.5644 C   0  0  0  0  0  0  0  0  0  0  0  0
   48.7386   59.6681   32.0928 N   0  0  0  0  0  0  0  0  0  0  0  0
   47.6464   58.9103   32.4213 C   0  0  0  0  0  0  0  0  0  0  0  0
   46.3546   59.4447   32.2491 C   0  0  0  0  0  0  0  0  0  0  0  0
   46.1788   60.7912   31.7232 C   0  0  0  0  0  0  0  0  0  0  0  0
   44.8376   61.3478   31.5426 N   0  0  0  0  0  0  0  0  0  0  0  0
   45.4008   58.4475   32.6694 N   0  0  0  0  0  0  0  0  0  0  0  0
   46.1261   57.3109   33.0981 C   0  0  0  0  0  0  0  0  0  0  0  0
   47.5179   57.5772   32.9503 N   0  0  0  0  0  0  0  0  0  0  0  0
  2  1  1  1  0  0  0
  2  3  1  0  0  0  0
  2  5  1  0  0  0  0
  3  4  1  0  0  0  0
  3 17  1  0  0  0  0
  5  6  1  0  0  0  0
  7  6  1  6  0  0  0
  7  8  1  0  0  0  0
  7  9  1  0  0  0  0
 10  9  1  6  0  0  0
 10 11  1  0  0  0  0
 10 12  1  0  0  0  0
 11 16  1  0  0  0  0
 12 13  1  1  0  0  0
 12 14  1  0  0  0  0
 14 15  1  1  0  0  0
 14 16  1  0  0  0  0
 16 27  1  6  0  0  0
 18 19  2  0  0  0  0
 18 23  1  0  0  0  0
 19 20  1  0  0  0  0
 20 21  2  0  0  0  0
 21 22  1  0  0  0  0
 21 27  1  0  0  0  0
 22 23  2  0  0  0  0
 22 25  1  0  0  0  0
 23 24  1  0  0  0  0
 25 26  2  0  0  0  0
 26 27  1  0  0  0  0
M  END
>  <CHROM.1>
-9.69683837,173.03077538,176.12060453,-172.31180277,-93.55629974,42.57347190
-63.89990617,48.05966808,57.27954009,31.09490752,-2.62131359,-1.08138674
1.93114142

>  <Name>
ligand

>  <RI>
0

>  <Rbt.Current_Directory>
/home/itssahil/PROJECTS/Mol_Feturizer/New_Systems/rnas/3GX2

>  <Rbt.Executable>
rbdock ($Id: //depot/dev/client3/rdock/2013.1/src/exe/rbdock.cxx#4 $)

>  <Rbt.Library>
libRbt.so (2013.1, Build901 2013/11/27)

>  <Rbt.Parameter_File>
/export/apps/rDock/src/rDock_2013.1_src/data/scripts/dock_solv.prm

>  <Rbt.Receptor>
prm/pocket_docking_2.prm

>  <SCORE>
-10.8012

>  <SCORE.INTER>
-10.084

>  <SCORE.INTER.CONST>
1

>  <SCORE.INTER.POLAR>
0

>  <SCORE.INTER.ROT>
7

>  <SCORE.INTER.SOLV>
26.1671

>  <SCORE.INTER.VDW>
-23.7117

>  <SCORE.INTER.norm>
-0.37348

>  <SCORE.INTRA>
-0.899314

>  <SCORE.INTRA.DIHEDRAL>
-4.65078

>  <SCORE.INTRA.DIHEDRAL.0>
13.9704

>  <SCORE.INTRA.POLAR>
0

>  <SCORE.INTRA.POLAR.0>
0

>  <SCORE.INTRA.REPUL>
0

>  <SCORE.INTRA.REPUL.0>
0

>  <SCORE.INTRA.SOLV>
3.17752

>  <SCORE.INTRA.SOLV.lig_0>
-70.9758

>  <SCORE.INTRA.VDW>
-0.162683

>  <SCORE.INTRA.VDW.0>
-2.70686

>  <SCORE.INTRA.norm>
-0.0333079

>  <SCORE.RESTR>
0.182059

>  <SCORE.RESTR.CAVITY>
0.182059

>  <SCORE.RESTR.norm>
0.00674291

>  <SCORE.SYSTEM>
0

>  <SCORE.SYSTEM.CONST>
0

>  <SCORE.SYSTEM.DIHEDRAL>
0

>  <SCORE.SYSTEM.SOLV>
0

>  <SCORE.SYSTEM.norm>
0

>  <SCORE.heavy>
27

>  <SCORE.norm>
-0.400045

>  <RMSD>
1.979

$$$$
ligand
 OpenBabel11021811473D
libRbt.so/2013.1/901 2013/11/27
 27 29  0  0  0  0  0  0  0  0999 V2000
   48.4097   53.9890   26.0366 N   0  0  0  0  0  0  0  0  0  0  0  0
   48.1936   53.9744   27.4817 C   0  0  2  0  0  0  0  0  0  0  0  0
   48.8444   55.1460   28.2200 C   0  0  0  0  0  0  0  0  0  0  0  0
   49.9197   55.5096   27.8760 O   0  0  0  0  0  0  0  0  0  0  0  0
   48.4615   52.6136   28.1582 C   0  0  0  0  0  0  0  0  0  0  0  0
   48.0926   52.4193   29.6553 C   0  0  0  0  0  0  0  0  0  0  0  0
   48.8933   53.2849   30.6643 C   0  0  2  0  0  0  0  0  0  0  0  0
   50.3040   52.9063   30.7453 N   0  0  0  0  0  0  0  0  0  0  0  0
   48.1978   53.3588   32.0586 C   0  0  0  0  0  0  0  0  0  0  0  0
   48.9302   54.1108   33.2207 C   0  0  1  0  0  0  0  0  0  0  0  0
   49.7305   55.2898   32.9101 O   0  0  0  0  0  0  0  0  0  0  0  0
   48.0616   54.5393   34.4364 C   0  0  1  0  0  0  0  0  0  0  0  0
   47.5023   53.5054   35.2569 O   0  0  0  0  0  0  0  0  0  0  0  0
   48.8494   55.7050   35.1107 C   0  0  1  0  0  0  0  0  0  0  0  0
   49.4443   55.4636   36.3631 O   0  0  0  0  0  0  0  0  0  0  0  0
   49.7220   56.2294   33.9660 C   0  0  2  0  0  0  0  0  0  0  0  0
   48.0126   56.0442   28.9179 O   0  0  0  0  0  0  0  0  0  0  0  0
   45.5933   59.2843   32.2028 N   0  0  0  0  0  0  0  0  0  0  0  0
   45.5558   57.9361   32.5768 C   0  0  0  0  0  0  0  0  0  0  0  0
   46.7740   57.2685   33.0301 N   0  0  0  0  0  0  0  0  0  0  0  0
   47.9541   57.9604   33.0918 C   0  0  0  0  0  0  0  0  0  0  0  0
   47.9835   59.3164   32.7117 C   0  0  0  0  0  0  0  0  0  0  0  0
   46.7693   59.9808   32.2593 C   0  0  0  0  0  0  0  0  0  0  0  0
   46.7976   61.3897   31.8650 N   0  0  0  0  0  0  0  0  0  0  0  0
   49.3355   59.7937   32.8702 N   0  0  0  0  0  0  0  0  0  0  0  0
   50.1201   58.7165   33.3452 C   0  0  0  0  0  0  0  0  0  0  0  0
   49.2825   57.5732   33.4907 N   0  0  0  0  0  0  0  0  0  0  0  0
  2  1  1  6  0  0  0
  2  3  1  0  0  0  0
  2  5  1  0  0  0  0
  3  4  1  0  0  0  0
  3 17  1  0  0  0  0
  5  6  1  0  0  0  0
  7  6  1  6  0  0  0
  7  8  1  0  0  0  0
  7  9  1  0  0  0  0
 10  9  1  6  0  0  0
 10 11  1  0  0  0  0
 10 12  1  0  0  0  0
 11 16  1  0  0  0  0
 12 13  1  1  0  0  0
 12 14  1  0  0  0  0
 14 15  1  1  0  0  0
 14 16  1  0  0  0  0
 16 27  1  6  0  0  0
 18 19  2  0  0  0  0
 18 23  1  0  0  0  0
 19 20  1  0  0  0  0
 20 21  2  0  0  0  0
 21 22  1  0  0  0  0
 21 27  1  0  0  0  0
 22 23  2  0  0  0  0
 22 25  1  0  0  0  0
 23 24  1  0  0  0  0
 25 26  2  0  0  0  0
 26 27  1  0  0  0  0
M  END
>  <CHROM.1>
-39.39453180,-172.14447701,-65.07792078,-67.90567200,175.71186918,34.93775452
71.09318359,48.38608965,55.97560180,31.78107411,1.10141697,1.31786356,-1.83506675

>  <Name>
ligand

>  <RI>
0

>  <Rbt.Current_Directory>
/home/itssahil/PROJECTS/Mol_Feturizer/New_Systems/rnas/3GX2

>  <Rbt.Executable>
rbdock ($Id: //depot/dev/client3/rdock/2013.1/src/exe/rbdock.cxx#4 $)

>  <Rbt.Library>
libRbt.so (2013.1, Build901 2013/11/27)

>  <Rbt.Parameter_File>
/export/apps/rDock/src/rDock_2013.1_src/data/scripts/dock_solv.prm

>  <Rbt.Receptor>
prm/pocket_docking_3.prm

>  <SCORE>
-13.8422

>  <SCORE.INTER>
-11.0966

>  <SCORE.INTER.CONST>
1

>  <SCORE.INTER.POLAR>
0

>  <SCORE.INTER.ROT>
7

>  <SCORE.INTER.SOLV>
19.9058

>  <SCORE.INTER.VDW>
-22.2997

>  <SCORE.INTER.norm>
-0.410985

>  <SCORE.INTRA>
-2.74563

>  <SCORE.INTRA.DIHEDRAL>
-7.00589

>  <SCORE.INTRA.DIHEDRAL.0>
13.9704

>  <SCORE.INTRA.POLAR>
0

>  <SCORE.INTRA.POLAR.0>
0

>  <SCORE.INTRA.REPUL>
0

>  <SCORE.INTRA.REPUL.0>
0

>  <SCORE.INTRA.SOLV>
2.62929

>  <SCORE.INTRA.SOLV.lig_0>
-70.9758

>  <SCORE.INTRA.VDW>
-0.557331

>  <SCORE.INTRA.VDW.0>
-2.70686

>  <SCORE.INTRA.norm>
-0.10169

>  <SCORE.RESTR>
0

>  <SCORE.RESTR.CAVITY>
0

>  <SCORE.RESTR.norm>
0

>  <SCORE.SYSTEM>
0

>  <SCORE.SYSTEM.CONST>
0

>  <SCORE.SYSTEM.DIHEDRAL>
0

>  <SCORE.SYSTEM.SOLV>
0

>  <SCORE.SYSTEM.norm>
0

>  <SCORE.heavy>
27

>  <SCORE.norm>
-0.512675

>  <RMSD>
2.010

$$$$
ligand
 OpenBabel11021811473D
libRbt.so/2013.1/901 2013/11/27
 27 29  0  0  0  0  0  0  0  0999 V2000
   50.9111   55.9275   27.1454 N   0  0  0  0  0  0  0  0  0  0  0  0
   49.4709   55.7286   26.9996 C   0  0  2  0  0  0  0  0  0  0  0  0
   48.6626   57.0275   26.9768 C   0  0  0  0  0  0  0  0  0  0  0  0
   47.5856   57.0198   26.4800 O   0  0  0  0  0  0  0  0  0  0  0  0
   48.8705   54.6627   27.9401 C   0  0  0  0  0  0  0  0  0  0  0  0
   48.9732   54.8568   29.4786 C   0  0  0  0  0  0  0  0  0  0  0  0
   48.1767   53.8412   30.3404 C   0  0  2  0  0  0  0  0  0  0  0  0
   46.8591   54.3393   30.7349 N   0  0  0  0  0  0  0  0  0  0  0  0
   49.0138   53.3048   31.5423 C   0  0  0  0  0  0  0  0  0  0  0  0
   49.2242   54.2374   32.7826 C   0  0  1  0  0  0  0  0  0  0  0  0
   49.2950   55.6802   32.5820 O   0  0  0  0  0  0  0  0  0  0  0  0
   48.2385   54.0577   33.9709 C   0  0  1  0  0  0  0  0  0  0  0  0
   48.2881   52.8249   34.7010 O   0  0  0  0  0  0  0  0  0  0  0  0
   48.2882   55.4080   34.7508 C   0  0  1  0  0  0  0  0  0  0  0  0
   48.8993   55.4173   36.0186 O   0  0  0  0  0  0  0  0  0  0  0  0
   48.7777   56.3949   33.6863 C   0  0  2  0  0  0  0  0  0  0  0  0
   48.9684   58.0246   27.9245 O   0  0  0  0  0  0  0  0  0  0  0  0
   47.6166   61.1905   31.4188 N   0  0  0  0  0  0  0  0  0  0  0  0
   48.8834   60.6391   31.6429 C   0  0  0  0  0  0  0  0  0  0  0  0
   49.0089   59.3257   32.2708 N   0  0  0  0  0  0  0  0  0  0  0  0
   47.8881   58.6307   32.6397 C   0  0  0  0  0  0  0  0  0  0  0  0
   46.6171   59.1937   32.4122 C   0  0  0  0  0  0  0  0  0  0  0  0
   46.4928   60.5030   31.7870 C   0  0  0  0  0  0  0  0  0  0  0  0
   45.1733   61.0891   31.5490 N   0  0  0  0  0  0  0  0  0  0  0  0
   45.6255   58.2623   32.8918 N   0  0  0  0  0  0  0  0  0  0  0  0
   46.3071   57.1368   33.4117 C   0  0  0  0  0  0  0  0  0  0  0  0
   47.7087   57.3451   33.2629 N   0  0  0  0  0  0  0  0  0  0  0  0
  2  1  1  1  0  0  0
  2  3  1  0  0  0  0
  2  5  1  0  0  0  0
  3  4  1  0  0  0  0
  3 17  1  0  0  0  0
  5  6  1  0  0  0  0
  7  6  1  1  0  0  0
  7  8  1  0  0  0  0
  7  9  1  0  0  0  0
 10  9  1  6  0  0  0
 10 11  1  0  0  0  0
 10 12  1  0  0  0  0
 11 16  1  0  0  0  0
 12 13  1  1  0  0  0
 12 14  1  0  0  0  0
 14 15  1  1  0  0  0
 14 16  1  0  0  0  0
 16 27  1  6  0  0  0
 18 19  2  0  0  0  0
 18 23  1  0  0  0  0
 19 20  1  0  0  0  0
 20 21  2  0  0  0  0
 21 22  1  0  0  0  0
 21 27  1  0  0  0  0
 22 23  2  0  0  0  0
 22 25  1  0  0  0  0
 23 24  1  0  0  0  0
 25 26  2  0  0  0  0
 26 27  1  0  0  0  0
M  END
>  <CHROM.1>
157.88707779,60.84254729,171.94499208,-95.60244447,75.83106718,-31.75104550
-78.31189243,48.16833820,56.67878352,31.36069115,-1.21569243,-1.24429553
2.06425653

>  <Name>
ligand

>  <RI>
0

>  <Rbt.Current_Directory>
/home/itssahil/PROJECTS/Mol_Feturizer/New_Systems/rnas/3GX2

>  <Rbt.Executable>
rbdock ($Id: //depot/dev/client3/rdock/2013.1/src/exe/rbdock.cxx#4 $)

>  <Rbt.Library>
libRbt.so (2013.1, Build901 2013/11/27)

>  <Rbt.Parameter_File>
/export/apps/rDock/src/rDock_2013.1_src/data/scripts/dock_solv.prm

>  <Rbt.Receptor>
prm/pocket_docking_6.prm

>  <SCORE>
-9.44937

>  <SCORE.INTER>
-9.56147

>  <SCORE.INTER.CONST>
1

>  <SCORE.INTER.POLAR>
0

>  <SCORE.INTER.ROT>
7

>  <SCORE.INTER.SOLV>
21.381

>  <SCORE.INTER.VDW>
-21.768

>  <SCORE.INTER.norm>
-0.354128

>  <SCORE.INTRA>
0.112096

>  <SCORE.INTRA.DIHEDRAL>
-1.79378

>  <SCORE.INTRA.DIHEDRAL.0>
13.9704

>  <SCORE.INTRA.POLAR>
0

>  <SCORE.INTRA.POLAR.0>
0

>  <SCORE.INTRA.REPUL>
0

>  <SCORE.INTRA.REPUL.0>
0

>  <SCORE.INTRA.SOLV>
2.46012

>  <SCORE.INTRA.SOLV.lig_0>
-70.9758

>  <SCORE.INTRA.VDW>
-0.221077

>  <SCORE.INTRA.VDW.0>
-2.70686

>  <SCORE.INTRA.norm>
0.0041517

>  <SCORE.RESTR>
0

>  <SCORE.RESTR.CAVITY>
0

>  <SCORE.RESTR.norm>
0

>  <SCORE.SYSTEM>
0

>  <SCORE.SYSTEM.CONST>
0

>  <SCORE.SYSTEM.DIHEDRAL>
0

>  <SCORE.SYSTEM.SOLV>
0

>  <SCORE.SYSTEM.norm>
0

>  <SCORE.heavy>
27

>  <SCORE.norm>
-0.349977

>  <RMSD>
2.086

$$$$
ligand
 OpenBabel11021811473D
libRbt.so/2013.1/901 2013/11/27
 27 29  0  0  0  0  0  0  0  0999 V2000
   48.4623   56.3654   26.5846 N   0  0  0  0  0  0  0  0  0  0  0  0
   47.2709   56.7250   27.3503 C   0  0  2  0  0  0  0  0  0  0  0  0
   47.2051   58.2028   27.7412 C   0  0  0  0  0  0  0  0  0  0  0  0
   46.1653   58.6540   28.0905 O   0  0  0  0  0  0  0  0  0  0  0  0
   46.9513   55.7770   28.5252 C   0  0  0  0  0  0  0  0  0  0  0  0
   47.9993   55.5821   29.6560 C   0  0  0  0  0  0  0  0  0  0  0  0
   48.4266   54.1161   29.9331 C   0  0  2  0  0  0  0  0  0  0  0  0
   47.2964   53.2448   30.2550 N   0  0  0  0  0  0  0  0  0  0  0  0
   49.5847   54.0270   30.9744 C   0  0  0  0  0  0  0  0  0  0  0  0
   49.3695   54.6642   32.3886 C   0  0  1  0  0  0  0  0  0  0  0  0
   49.3042   56.1162   32.5105 O   0  0  0  0  0  0  0  0  0  0  0  0
   48.1565   54.1496   33.2129 C   0  0  1  0  0  0  0  0  0  0  0  0
   48.1831   52.7893   33.6648 O   0  0  0  0  0  0  0  0  0  0  0  0
   47.8455   55.2863   34.2353 C   0  0  1  0  0  0  0  0  0  0  0  0
   48.1257   55.0488   35.5939 O   0  0  0  0  0  0  0  0  0  0  0  0
   48.4494   56.5219   33.5605 C   0  0  2  0  0  0  0  0  0  0  0  0
   48.3945   58.8449   28.1397 O   0  0  0  0  0  0  0  0  0  0  0  0
   47.4015   61.3472   31.3008 N   0  0  0  0  0  0  0  0  0  0  0  0
   48.6544   60.8079   31.6141 C   0  0  0  0  0  0  0  0  0  0  0  0
   48.7490   59.4837   32.2245 N   0  0  0  0  0  0  0  0  0  0  0  0
   47.6128   58.7668   32.4898 C   0  0  0  0  0  0  0  0  0  0  0  0
   46.3557   59.3177   32.1731 C   0  0  0  0  0  0  0  0  0  0  0  0
   46.2622   60.6378   31.5654 C   0  0  0  0  0  0  0  0  0  0  0  0
   44.9572   61.2114   31.2348 N   0  0  0  0  0  0  0  0  0  0  0  0
   45.3430   58.3639   32.5546 N   0  0  0  0  0  0  0  0  0  0  0  0
   45.9977   57.2371   33.1051 C   0  0  0  0  0  0  0  0  0  0  0  0
   47.4035   57.4666   33.0720 N   0  0  0  0  0  0  0  0  0  0  0  0
  2  1  1  1  0  0  0
  2  3  1  0  0  0  0
  2  5  1  0  0  0  0
  3  4  1  0  0  0  0
  3 17  1  0  0  0  0
  5  6  1  0  0  0  0
  7  6  1  1  0  0  0
  7  8  1  0  0  0  0
  7  9  1  0  0  0  0
 10  9  1  6  0  0  0
 10 11  1  0  0  0  0
 10 12  1  0  0  0  0
 11 16  1  0  0  0  0
 12 13  1  1  0  0  0
 12 14  1  0  0  0  0
 14 15  1  1  0  0  0
 14 16  1  0  0  0  0
 16 27  1  6  0  0  0
 18 19  2  0  0  0  0
 18 23  1  0  0  0  0
 19 20  1  0  0  0  0
 20 21  2  0  0  0  0
 21 22  1  0  0  0  0
 21 27  1  0  0  0  0
 22 23  2  0  0  0  0
 22 25  1  0  0  0  0
 23 24  1  0  0  0  0
 25 26  2  0  0  0  0
 26 27  1  0  0  0  0
M  END
>  <CHROM.1>
163.28233928,59.29705289,-124.63290587,-56.73857449,57.15541760,-69.66089143
-62.16024773,47.64657498,57.00846859,31.23479447,-2.64147544,-1.30578185
1.54740029

>  <Name>
ligand

>  <RI>
0

>  <Rbt.Current_Directory>
/home/itssahil/PROJECTS/Mol_Feturizer/New_Systems/rnas/3GX2

>  <Rbt.Executable>
rbdock ($Id: //depot/dev/client3/rdock/2013.1/src/exe/rbdock.cxx#4 $)

>  <Rbt.Library>
libRbt.so (2013.1, Build901 2013/11/27)

>  <Rbt.Parameter_File>
/export/apps/rDock/src/rDock_2013.1_src/data/scripts/dock_solv.prm

>  <Rbt.Receptor>
prm/pocket_docking_2.prm

>  <SCORE>
-8.17853

>  <SCORE.INTER>
-7.4961

>  <SCORE.INTER.CONST>
1

>  <SCORE.INTER.POLAR>
0

>  <SCORE.INTER.ROT>
7

>  <SCORE.INTER.SOLV>
23.0977

>  <SCORE.INTER.VDW>
-20.9633

>  <SCORE.INTER.norm>
-0.277634

>  <SCORE.INTRA>
-0.702988

>  <SCORE.INTRA.DIHEDRAL>
-2.82589

>  <SCORE.INTRA.DIHEDRAL.0>
13.9704

>  <SCORE.INTRA.POLAR>
0

>  <SCORE.INTRA.POLAR.0>
0

>  <SCORE.INTRA.REPUL>
0

>  <SCORE.INTRA.REPUL.0>
0

>  <SCORE.INTRA.SOLV>
3.04928

>  <SCORE.INTRA.SOLV.lig_0>
-70.9758

>  <SCORE.INTRA.VDW>
-0.814686

>  <SCORE.INTRA.VDW.0>
-2.70686

>  <SCORE.INTRA.norm>
-0.0260366

>  <SCORE.RESTR>
0.0205608

>  <SCORE.RESTR.CAVITY>
0.0205608

>  <SCORE.RESTR.norm>
0.000761511

>  <SCORE.SYSTEM>
0

>  <SCORE.SYSTEM.CONST>
0

>  <SCORE.SYSTEM.DIHEDRAL>
0

>  <SCORE.SYSTEM.SOLV>
0

>  <SCORE.SYSTEM.norm>
0

>  <SCORE.heavy>
27

>  <SCORE.norm>
-0.302909

>  <RMSD>
2.115

$$$$
ligand
 OpenBabel11021811473D
libRbt.so/2013.1/901 2013/11/27
 27 29  0  0  0  0  0  0  0  0999 V2000
   48.1046   55.7038   26.4733 N   0  0  0  0  0  0  0  0  0  0  0  0
   47.2566   56.6574   27.1851 C   0  0  2  0  0  0  0  0  0  0  0  0
   47.7202   58.1109   27.0673 C   0  0  0  0  0  0  0  0  0  0  0  0
   47.0689   58.8664   26.4255 O   0  0  0  0  0  0  0  0  0  0  0  0
   46.9084   56.2525   28.6328 C   0  0  0  0  0  0  0  0  0  0  0  0
   48.0545   55.9766   29.6454 C   0  0  0  0  0  0  0  0  0  0  0  0
   48.6762   54.5558   29.5886 C   0  0  2  0  0  0  0  0  0  0  0  0
   47.6758   53.4925   29.6816 N   0  0  0  0  0  0  0  0  0  0  0  0
   49.8481   54.3847   30.6037 C   0  0  0  0  0  0  0  0  0  0  0  0
   49.6627   54.9320   32.0592 C   0  0  1  0  0  0  0  0  0  0  0  0
   49.5202   56.3689   32.2645 O   0  0  0  0  0  0  0  0  0  0  0  0
   48.5206   54.3030   32.9053 C   0  0  1  0  0  0  0  0  0  0  0  0
   48.6460   52.9246   33.2791 O   0  0  0  0  0  0  0  0  0  0  0  0
   48.1929   55.3633   34.0018 C   0  0  1  0  0  0  0  0  0  0  0  0
   48.5490   55.0711   35.3317 O   0  0  0  0  0  0  0  0  0  0  0  0
   48.6932   56.6668   33.3714 C   0  0  2  0  0  0  0  0  0  0  0  0
   48.5769   58.6243   28.0613 O   0  0  0  0  0  0  0  0  0  0  0  0
   47.2694   61.4970   31.3395 N   0  0  0  0  0  0  0  0  0  0  0  0
   48.5646   61.0118   31.5539 C   0  0  0  0  0  0  0  0  0  0  0  0
   48.7624   59.6770   32.1143 N   0  0  0  0  0  0  0  0  0  0  0  0
   47.6817   58.8972   32.4293 C   0  0  0  0  0  0  0  0  0  0  0  0
   46.3816   59.3939   32.2121 C   0  0  0  0  0  0  0  0  0  0  0  0
   46.1852   60.7246   31.6543 C   0  0  0  0  0  0  0  0  0  0  0  0
   44.8354   61.2419   31.4271 N   0  0  0  0  0  0  0  0  0  0  0  0
   45.4429   58.3803   32.6275 N   0  0  0  0  0  0  0  0  0  0  0  0
   46.1855   57.2720   33.0983 C   0  0  0  0  0  0  0  0  0  0  0  0
   47.5735   57.5719   32.9819 N   0  0  0  0  0  0  0  0  0  0  0  0
  2  1  1  1  0  0  0
  2  3  1  0  0  0  0
  2  5  1  0  0  0  0
  3  4  1  0  0  0  0
  3 17  1  0  0  0  0
  5  6  1  0  0  0  0
  7  6  1  1  0  0  0
  7  8  1  0  0  0  0
  7  9  1  0  0  0  0
 10  9  1  6  0  0  0
 10 11  1  0  0  0  0
 10 12  1  0  0  0  0
 11 16  1  0  0  0  0
 12 13  1  1  0  0  0
 12 14  1  0  0  0  0
 14 15  1  1  0  0  0
 14 16  1  0  0  0  0
 16 27  1  6  0  0  0
 18 19  2  0  0  0  0
 18 23  1  0  0  0  0
 19 20  1  0  0  0  0
 20 21  2  0  0  0  0
 21 22  1  0  0  0  0
 21 27  1  0  0  0  0
 22 23  2  0  0  0  0
 22 25  1  0  0  0  0
 23 24  1  0  0  0  0
 25 26  2  0  0  0  0
 26 27  1  0  0  0  0
M  END
>  <CHROM.1>
110.10667431,56.99482620,-82.83838430,-52.70028895,44.35299425,-65.16641117
-60.26682384,47.82703335,57.12482654,31.01025892,-2.58353355,-1.25742522
1.51863351

>  <Name>
ligand

>  <RI>
0

>  <Rbt.Current_Directory>
/home/itssahil/PROJECTS/Mol_Feturizer/New_Systems/rnas/3GX2

>  <Rbt.Executable>
rbdock ($Id: //depot/dev/client3/rdock/2013.1/src/exe/rbdock.cxx#4 $)

>  <Rbt.Library>
libRbt.so (2013.1, Build901 2013/11/27)

>  <Rbt.Parameter_File>
/export/apps/rDock/src/rDock_2013.1_src/data/scripts/dock_solv.prm

>  <Rbt.Receptor>
prm/pocket_docking_2.prm

>  <SCORE>
-10.7709

>  <SCORE.INTER>
-9.24846

>  <SCORE.INTER.CONST>
1

>  <SCORE.INTER.POLAR>
0

>  <SCORE.INTER.ROT>
7

>  <SCORE.INTER.SOLV>
22.3173

>  <SCORE.INTER.VDW>
-21.8714

>  <SCORE.INTER.norm>
-0.342535

>  <SCORE.INTRA>
-1.55107

>  <SCORE.INTRA.DIHEDRAL>
-6.26577

>  <SCORE.INTRA.DIHEDRAL.0>
13.9704

>  <SCORE.INTRA.POLAR>
0

>  <SCORE.INTRA.POLAR.0>
0

>  <SCORE.INTRA.REPUL>
0

>  <SCORE.INTRA.REPUL.0>
0

>  <SCORE.INTRA.SOLV>
3.75077

>  <SCORE.INTRA.SOLV.lig_0>
-70.9758

>  <SCORE.INTRA.VDW>
-0.293573

>  <SCORE.INTRA.VDW.0>
-2.70686

>  <SCORE.INTRA.norm>
-0.0574471

>  <SCORE.RESTR>
0.028581

>  <SCORE.RESTR.CAVITY>
0.028581

>  <SCORE.RESTR.norm>
0.00105856

>  <SCORE.SYSTEM>
0

>  <SCORE.SYSTEM.CONST>
0

>  <SCORE.SYSTEM.DIHEDRAL>
0

>  <SCORE.SYSTEM.SOLV>
0

>  <SCORE.SYSTEM.norm>
0

>  <SCORE.heavy>
27

>  <SCORE.norm>
-0.398924

>  <RMSD>
2.146

$$$$
ligand
 OpenBabel11021811473D
libRbt.so/2013.1/901 2013/11/27
 27 29  0  0  0  0  0  0  0  0999 V2000
   51.5593   53.7351   28.4302 N   0  0  0  0  0  0  0  0  0  0  0  0
   50.1967   54.0305   28.8675 C   0  0  2  0  0  0  0  0  0  0  0  0
   49.9416   55.5125   29.1503 C   0  0  0  0  0  0  0  0  0  0  0  0
   50.5372   56.0349   30.0330 O   0  0  0  0  0  0  0  0  0  0  0  0
   49.6640   53.1051   29.9815 C   0  0  0  0  0  0  0  0  0  0  0  0
   48.2037   52.5792   29.9041 C   0  0  0  0  0  0  0  0  0  0  0  0
   47.0932   53.6373   30.1402 C   0  0  2  0  0  0  0  0  0  0  0  0
   47.3312   54.8844   29.4135 N   0  0  0  0  0  0  0  0  0  0  0  0
   46.8029   53.8581   31.6569 C   0  0  0  0  0  0  0  0  0  0  0  0
   47.9467   54.4279   32.5620 C   0  0  1  0  0  0  0  0  0  0  0  0
   48.7945   55.4966   32.0460 O   0  0  0  0  0  0  0  0  0  0  0  0
   47.5436   54.9042   33.9856 C   0  0  1  0  0  0  0  0  0  0  0  0
   47.0932   53.9145   34.9198 O   0  0  0  0  0  0  0  0  0  0  0  0
   48.6623   55.9036   34.4142 C   0  0  1  0  0  0  0  0  0  0  0  0
   49.5494   55.5065   35.4321 O   0  0  0  0  0  0  0  0  0  0  0  0
   49.2365   56.3641   33.0707 C   0  0  2  0  0  0  0  0  0  0  0  0
   49.4175   56.3123   28.1152 O   0  0  0  0  0  0  0  0  0  0  0  0
   45.2848   59.9424   32.0377 N   0  0  0  0  0  0  0  0  0  0  0  0
   45.1480   58.5734   32.2941 C   0  0  0  0  0  0  0  0  0  0  0  0
   46.3310   57.7558   32.5531 N   0  0  0  0  0  0  0  0  0  0  0  0
   47.5755   58.3270   32.5474 C   0  0  0  0  0  0  0  0  0  0  0  0
   47.7045   59.7052   32.2866 C   0  0  0  0  0  0  0  0  0  0  0  0
   46.5251   60.5193   32.0278 C   0  0  0  0  0  0  0  0  0  0  0  0
   46.6570   61.9514   31.7576 N   0  0  0  0  0  0  0  0  0  0  0  0
   49.1069   60.0388   32.3394 N   0  0  0  0  0  0  0  0  0  0  0  0
   49.8213   58.8529   32.6307 C   0  0  0  0  0  0  0  0  0  0  0  0
   48.8906   57.7825   32.7651 N   0  0  0  0  0  0  0  0  0  0  0  0
  2  1  1  1  0  0  0
  2  3  1  0  0  0  0
  2  5  1  0  0  0  0
  3  4  1  0  0  0  0
  3 17  1  0  0  0  0
  5  6  1  0  0  0  0
  7  6  1  1  0  0  0
  7  8  1  0  0  0  0
  7  9  1  0  0  0  0
 10  9  1  6  0  0  0
 10 11  1  0  0  0  0
 10 12  1  0  0  0  0
 11 16  1  0  0  0  0
 12 13  1  1  0  0  0
 12 14  1  0  0  0  0
 14 15  1  1  0  0  0
 14 16  1  0  0  0  0
 16 27  1  6  0  0  0
 18 19  2  0  0  0  0
 18 23  1  0  0  0  0
 19 20  1  0  0  0  0
 20 21  2  0  0  0  0
 21 22  1  0  0  0  0
 21 27  1  0  0  0  0
 22 23  2  0  0  0  0
 22 25  1  0  0  0  0
 23 24  1  0  0  0  0
 25 26  2  0  0  0  0
 26 27  1  0  0  0  0
M  END
>  <CHROM.1>
-63.95328092,-137.98103132,-70.22991111,45.11422690,63.19456874,40.80728745
59.14704733,48.28368029,56.35785416,31.67207152,-0.58427861,1.15310567,-0.50837272

>  <Name>
ligand

>  <RI>
0

>  <Rbt.Current_Directory>
/home/itssahil/PROJECTS/Mol_Feturizer/New_Systems/rnas/3GX2

>  <Rbt.Executable>
rbdock ($Id: //depot/dev/client3/rdock/2013.1/src/exe/rbdock.cxx#4 $)

>  <Rbt.Library>
libRbt.so (2013.1, Build901 2013/11/27)

>  <Rbt.Parameter_File>
/export/apps/rDock/src/rDock_2013.1_src/data/scripts/dock_solv.prm

>  <Rbt.Receptor>
prm/pocket_docking_2.prm

>  <SCORE>
-8.7852

>  <SCORE.INTER>
-9.85687

>  <SCORE.INTER.CONST>
1

>  <SCORE.INTER.POLAR>
0

>  <SCORE.INTER.ROT>
7

>  <SCORE.INTER.SOLV>
20.4298

>  <SCORE.INTER.VDW>
-21.6478

>  <SCORE.INTER.norm>
-0.365069

>  <SCORE.INTRA>
0.253416

>  <SCORE.INTRA.DIHEDRAL>
-3.00121

>  <SCORE.INTRA.DIHEDRAL.0>
13.9704

>  <SCORE.INTRA.POLAR>
0

>  <SCORE.INTRA.POLAR.0>
0

>  <SCORE.INTRA.REPUL>
0

>  <SCORE.INTRA.REPUL.0>
0

>  <SCORE.INTRA.SOLV>
5.90135

>  <SCORE.INTRA.SOLV.lig_0>
-70.9758

>  <SCORE.INTRA.VDW>
-1.19665

>  <SCORE.INTRA.VDW.0>
-2.70686

>  <SCORE.INTRA.norm>
0.00938578

>  <SCORE.RESTR>
0.818257

>  <SCORE.RESTR.CAVITY>
0.818257

>  <SCORE.RESTR.norm>
0.0303058

>  <SCORE.SYSTEM>
0

>  <SCORE.SYSTEM.CONST>
0

>  <SCORE.SYSTEM.DIHEDRAL>
0

>  <SCORE.SYSTEM.SOLV>
0

>  <SCORE.SYSTEM.norm>
0

>  <SCORE.heavy>
27

>  <SCORE.norm>
-0.325378

>  <RMSD>
2.161

$$$$
ligand
 OpenBabel11021811473D
libRbt.so/2013.1/901 2013/11/27
 27 29  0  0  0  0  0  0  0  0999 V2000
   52.0347   56.2103   27.9393 N   0  0  0  0  0  0  0  0  0  0  0  0
   51.9665   54.8001   27.5631 C   0  0  2  0  0  0  0  0  0  0  0  0
   51.2313   54.5423   26.2461 C   0  0  0  0  0  0  0  0  0  0  0  0
   50.7733   55.4657   25.6591 O   0  0  0  0  0  0  0  0  0  0  0  0
   51.5202   53.8530   28.6966 C   0  0  0  0  0  0  0  0  0  0  0  0
   50.3345   54.2644   29.6131 C   0  0  0  0  0  0  0  0  0  0  0  0
   49.6957   53.1192   30.4431 C   0  0  2  0  0  0  0  0  0  0  0  0
   49.1508   52.0475   29.6096 N   0  0  0  0  0  0  0  0  0  0  0  0
   48.6774   53.6531   31.4972 C   0  0  0  0  0  0  0  0  0  0  0  0
   49.2297   54.3860   32.7662 C   0  0  1  0  0  0  0  0  0  0  0  0
   50.0102   55.6065   32.5976 O   0  0  0  0  0  0  0  0  0  0  0  0
   48.2019   54.7321   33.8796 C   0  0  1  0  0  0  0  0  0  0  0  0
   47.5920   53.6456   34.5885 O   0  0  0  0  0  0  0  0  0  0  0  0
   48.8506   55.8997   34.6859 C   0  0  1  0  0  0  0  0  0  0  0  0
   49.2985   55.6319   35.9930 O   0  0  0  0  0  0  0  0  0  0  0  0
   49.8326   56.5024   33.6764 C   0  0  2  0  0  0  0  0  0  0  0  0
   51.5207   53.3597   25.5367 O   0  0  0  0  0  0  0  0  0  0  0  0
   45.6743   59.6255   32.1138 N   0  0  0  0  0  0  0  0  0  0  0  0
   45.6276   58.2880   32.5235 C   0  0  0  0  0  0  0  0  0  0  0  0
   46.8560   57.5986   32.9119 N   0  0  0  0  0  0  0  0  0  0  0  0
   48.0548   58.2595   32.8777 C   0  0  0  0  0  0  0  0  0  0  0  0
   48.0932   59.6049   32.4623 C   0  0  0  0  0  0  0  0  0  0  0  0
   46.8687   60.2911   32.0747 C   0  0  0  0  0  0  0  0  0  0  0  0
   46.9064   61.6891   31.6439 N   0  0  0  0  0  0  0  0  0  0  0  0
   49.4645   60.0491   32.5188 N   0  0  0  0  0  0  0  0  0  0  0  0
   50.2514   58.9625   32.9679 C   0  0  0  0  0  0  0  0  0  0  0  0
   49.3966   57.8460   33.1974 N   0  0  0  0  0  0  0  0  0  0  0  0
  2  1  1  1  0  0  0
  2  3  1  0  0  0  0
  2  5  1  0  0  0  0
  3  4  1  0  0  0  0
  3 17  1  0  0  0  0
  5  6  1  0  0  0  0
  7  6  1  6  0  0  0
  7  8  1  0  0  0  0
  7  9  1  0  0  0  0
 10  9  1  6  0  0  0
 10 11  1  0  0  0  0
 10 12  1  0  0  0  0
 11 16  1  0  0  0  0
 12 13  1  1  0  0  0
 12 14  1  0  0  0  0
 14 15  1  1  0  0  0
 14 16  1  0  0  0  0
 16 27  1  6  0  0  0
 18 19  2  0  0  0  0
 18 23  1  0  0  0  0
 19 20  1  0  0  0  0
 20 21  2  0  0  0  0
 21 22  1  0  0  0  0
 21 27  1  0  0  0  0
 22 23  2  0  0  0  0
 22 25  1  0  0  0  0
 23 24  1  0  0  0  0
 25 26  2  0  0  0  0
 26 27  1  0  0  0  0
M  END
>  <CHROM.1>
-0.94935471,43.26334382,163.30233264,-60.01413152,-73.02519538,60.88556666
83.14615178,49.19472136,56.20369356,31.29812363,0.05874059,1.14244226,-0.68583017

>  <Name>
ligand

>  <RI>
0

>  <Rbt.Current_Directory>
/home/itssahil/PROJECTS/Mol_Feturizer/New_Systems/rnas/3GX2

>  <Rbt.Executable>
rbdock ($Id: //depot/dev/client3/rdock/2013.1/src/exe/rbdock.cxx#4 $)

>  <Rbt.Library>
libRbt.so (2013.1, Build901 2013/11/27)

>  <Rbt.Parameter_File>
/export/apps/rDock/src/rDock_2013.1_src/data/scripts/dock_solv.prm

>  <Rbt.Receptor>
prm/pocket_docking_6.prm

>  <SCORE>
-15.7923

>  <SCORE.INTER>
-12.7103

>  <SCORE.INTER.CONST>
1

>  <SCORE.INTER.POLAR>
0

>  <SCORE.INTER.ROT>
7

>  <SCORE.INTER.SOLV>
28.0806

>  <SCORE.INTER.VDW>
-26.1004

>  <SCORE.INTER.norm>
-0.470751

>  <SCORE.INTRA>
-3.082

>  <SCORE.INTRA.DIHEDRAL>
-6.54871

>  <SCORE.INTRA.DIHEDRAL.0>
13.9704

>  <SCORE.INTRA.POLAR>
0

>  <SCORE.INTRA.POLAR.0>
0

>  <SCORE.INTRA.REPUL>
0

>  <SCORE.INTRA.REPUL.0>
0

>  <SCORE.INTRA.SOLV>
0.28518

>  <SCORE.INTRA.SOLV.lig_0>
-70.9758

>  <SCORE.INTRA.VDW>
0.0497656

>  <SCORE.INTRA.VDW.0>
-2.70686

>  <SCORE.INTRA.norm>
-0.114148

>  <SCORE.RESTR>
0

>  <SCORE.RESTR.CAVITY>
0

>  <SCORE.RESTR.norm>
0

>  <SCORE.SYSTEM>
0

>  <SCORE.SYSTEM.CONST>
0

>  <SCORE.SYSTEM.DIHEDRAL>
0

>  <SCORE.SYSTEM.SOLV>
0

>  <SCORE.SYSTEM.norm>
0

>  <SCORE.heavy>
27

>  <SCORE.norm>
-0.5849

>  <RMSD>
2.199

$$$$
ligand
 OpenBabel11021811473D
libRbt.so/2013.1/901 2013/11/27
 27 29  0  0  0  0  0  0  0  0999 V2000
   49.9562   55.9616   27.2794 N   0  0  0  0  0  0  0  0  0  0  0  0
   50.6982   55.4937   28.4479 C   0  0  2  0  0  0  0  0  0  0  0  0
   50.9430   53.9834   28.4658 C   0  0  0  0  0  0  0  0  0  0  0  0
   51.5722   53.5187   29.3574 O   0  0  0  0  0  0  0  0  0  0  0  0
   50.1811   56.0354   29.7972 C   0  0  0  0  0  0  0  0  0  0  0  0
   48.6987   55.7972   30.1981 C   0  0  0  0  0  0  0  0  0  0  0  0
   48.2913   54.3168   30.4237 C   0  0  2  0  0  0  0  0  0  0  0  0
   46.8591   54.1518   30.6715 N   0  0  0  0  0  0  0  0  0  0  0  0
   49.1830   53.6175   31.4958 C   0  0  0  0  0  0  0  0  0  0  0  0
   49.3772   54.3210   32.8813 C   0  0  1  0  0  0  0  0  0  0  0  0
   50.0174   55.6306   32.9289 O   0  0  0  0  0  0  0  0  0  0  0  0
   48.1143   54.4725   33.7745 C   0  0  1  0  0  0  0  0  0  0  0  0
   47.5163   53.2785   34.2960 O   0  0  0  0  0  0  0  0  0  0  0  0
   48.4398   55.6490   34.7462 C   0  0  1  0  0  0  0  0  0  0  0  0
   48.6497   55.3461   36.1045 O   0  0  0  0  0  0  0  0  0  0  0  0
   49.5194   56.4258   33.9861 C   0  0  2  0  0  0  0  0  0  0  0  0
   50.0580   53.1520   27.7507 O   0  0  0  0  0  0  0  0  0  0  0  0
   45.2839   59.2456   32.0896 N   0  0  0  0  0  0  0  0  0  0  0  0
   45.3070   57.9007   32.4762 C   0  0  0  0  0  0  0  0  0  0  0  0
   46.5462   57.3015   32.9665 N   0  0  0  0  0  0  0  0  0  0  0  0
   47.6869   58.0544   33.0506 C   0  0  0  0  0  0  0  0  0  0  0  0
   47.6555   59.4067   32.6577 C   0  0  0  0  0  0  0  0  0  0  0  0
   46.4203   60.0029   32.1684 C   0  0  0  0  0  0  0  0  0  0  0  0
   46.3855   61.4079   31.7606 N   0  0  0  0  0  0  0  0  0  0  0  0
   48.9765   59.9553   32.8450 N   0  0  0  0  0  0  0  0  0  0  0  0
   49.8035   58.9247   33.3503 C   0  0  0  0  0  0  0  0  0  0  0  0
   49.0229   57.7406   33.4864 N   0  0  0  0  0  0  0  0  0  0  0  0
  2  1  1  6  0  0  0
  2  3  1  0  0  0  0
  2  5  1  0  0  0  0
  3  4  1  0  0  0  0
  3 17  1  0  0  0  0
  5  6  1  0  0  0  0
  7  6  1  1  0  0  0
  7  8  1  0  0  0  0
  7  9  1  0  0  0  0
 10  9  1  6  0  0  0
 10 11  1  0  0  0  0
 10 12  1  0  0  0  0
 11 16  1  0  0  0  0
 12 13  1  1  0  0  0
 12 14  1  0  0  0  0
 14 15  1  1  0  0  0
 14 16  1  0  0  0  0
 16 27  1  6  0  0  0
 18 19  2  0  0  0  0
 18 23  1  0  0  0  0
 19 20  1  0  0  0  0
 20 21  2  0  0  0  0
 21 22  1  0  0  0  0
 21 27  1  0  0  0  0
 22 23  2  0  0  0  0
 22 25  1  0  0  0  0
 23 24  1  0  0  0  0
 25 26  2  0  0  0  0
 26 27  1  0  0  0  0
M  END
>  <CHROM.1>
177.80248233,56.77764519,64.87996766,-174.47976372,50.93217812,-61.88417914
90.36578514,48.60598204,56.23683715,31.81418575,0.08956421,1.12111704,-0.96166976

>  <Name>
ligand

>  <RI>
0

>  <Rbt.Current_Directory>
/home/itssahil/PROJECTS/Mol_Feturizer/New_Systems/rnas/3GX2

>  <Rbt.Executable>
rbdock ($Id: //depot/dev/client3/rdock/2013.1/src/exe/rbdock.cxx#4 $)

>  <Rbt.Library>
libRbt.so (2013.1, Build901 2013/11/27)

>  <Rbt.Parameter_File>
/export/apps/rDock/src/rDock_2013.1_src/data/scripts/dock_solv.prm

>  <Rbt.Receptor>
prm/pocket_docking_5.prm

>  <SCORE>
-16.2421

>  <SCORE.INTER>
-11.9397

>  <SCORE.INTER.CONST>
1

>  <SCORE.INTER.POLAR>
0

>  <SCORE.INTER.ROT>
7

>  <SCORE.INTER.SOLV>
18.5168

>  <SCORE.INTER.VDW>
-22.3987

>  <SCORE.INTER.norm>
-0.442211

>  <SCORE.INTRA>
-4.30235

>  <SCORE.INTRA.DIHEDRAL>
-8.91797

>  <SCORE.INTRA.DIHEDRAL.0>
13.9704

>  <SCORE.INTRA.POLAR>
0

>  <SCORE.INTRA.POLAR.0>
0

>  <SCORE.INTRA.REPUL>
0

>  <SCORE.INTRA.REPUL.0>
0

>  <SCORE.INTRA.SOLV>
3.01211

>  <SCORE.INTRA.SOLV.lig_0>
-70.9758

>  <SCORE.INTRA.VDW>
-1.34943

>  <SCORE.INTRA.VDW.0>
-2.70686

>  <SCORE.INTRA.norm>
-0.159346

>  <SCORE.RESTR>
0

>  <SCORE.RESTR.CAVITY>
0

>  <SCORE.RESTR.norm>
0

>  <SCORE.SYSTEM>
0

>  <SCORE.SYSTEM.CONST>
0

>  <SCORE.SYSTEM.DIHEDRAL>
0

>  <SCORE.SYSTEM.SOLV>
0

>  <SCORE.SYSTEM.norm>
0

>  <SCORE.heavy>
27

>  <SCORE.norm>
-0.601558

>  <RMSD>
2.232

$$$$
ligand
 OpenBabel11021811473D
libRbt.so/2013.1/901 2013/11/27
 27 29  0  0  0  0  0  0  0  0999 V2000
   47.8434   52.8995   25.6177 N   0  0  0  0  0  0  0  0  0  0  0  0
   47.8639   54.3563   25.7279 C   0  0  2  0  0  0  0  0  0  0  0  0
   48.9549   55.0283   24.8916 C   0  0  0  0  0  0  0  0  0  0  0  0
   48.6459   55.8925   24.1403 O   0  0  0  0  0  0  0  0  0  0  0  0
   47.7975   54.8929   27.1732 C   0  0  0  0  0  0  0  0  0  0  0  0
   48.8155   54.3756   28.2273 C   0  0  0  0  0  0  0  0  0  0  0  0
   48.7000   55.0054   29.6410 C   0  0  2  0  0  0  0  0  0  0  0  0
   49.0139   56.4341   29.6552 N   0  0  0  0  0  0  0  0  0  0  0  0
   49.4903   54.1940   30.7135 C   0  0  0  0  0  0  0  0  0  0  0  0
   49.5992   54.7777   32.1626 C   0  0  1  0  0  0  0  0  0  0  0  0
   50.1926   56.0961   32.3541 O   0  0  0  0  0  0  0  0  0  0  0  0
   48.2934   54.8127   33.0050 C   0  0  1  0  0  0  0  0  0  0  0  0
   47.7128   53.5603   33.3918 O   0  0  0  0  0  0  0  0  0  0  0  0
   48.5360   55.9077   34.0895 C   0  0  1  0  0  0  0  0  0  0  0  0
   48.6952   55.4922   35.4247 O   0  0  0  0  0  0  0  0  0  0  0  0
   49.6219   56.7799   33.4517 C   0  0  2  0  0  0  0  0  0  0  0  0
   50.2851   54.9702   25.3531 O   0  0  0  0  0  0  0  0  0  0  0  0
   45.2686   59.7452   32.1313 N   0  0  0  0  0  0  0  0  0  0  0  0
   45.3019   58.3902   32.4800 C   0  0  0  0  0  0  0  0  0  0  0  0
   46.5738   57.7500   32.8077 N   0  0  0  0  0  0  0  0  0  0  0  0
   47.7356   58.4743   32.7761 C   0  0  0  0  0  0  0  0  0  0  0  0
   47.6935   59.8371   32.4223 C   0  0  0  0  0  0  0  0  0  0  0  0
   46.4256   60.4742   32.0952 C   0  0  0  0  0  0  0  0  0  0  0  0
   46.3797   61.8901   31.7283 N   0  0  0  0  0  0  0  0  0  0  0  0
   49.0409   60.3503   32.4673 N   0  0  0  0  0  0  0  0  0  0  0  0
   49.8943   59.2880   32.8475 C   0  0  0  0  0  0  0  0  0  0  0  0
   49.1047   58.1186   33.0452 N   0  0  0  0  0  0  0  0  0  0  0  0
  2  1  1  1  0  0  0
  2  3  1  0  0  0  0
  2  5  1  0  0  0  0
  3  4  1  0  0  0  0
  3 17  1  0  0  0  0
  5  6  1  0  0  0  0
  7  6  1  6  0  0  0
  7  8  1  0  0  0  0
  7  9  1  0  0  0  0
 10  9  1  6  0  0  0
 10 11  1  0  0  0  0
 10 12  1  0  0  0  0
 11 16  1  0  0  0  0
 12 13  1  1  0  0  0
 12 14  1  0  0  0  0
 14 15  1  1  0  0  0
 14 16  1  0  0  0  0
 16 27  1  6  0  0  0
 18 19  2  0  0  0  0
 18 23  1  0  0  0  0
 19 20  1  0  0  0  0
 20 21  2  0  0  0  0
 21 22  1  0  0  0  0
 21 27  1  0  0  0  0
 22 23  2  0  0  0  0
 22 25  1  0  0  0  0
 23 24  1  0  0  0  0
 25 26  2  0  0  0  0
 26 27  1  0  0  0  0
M  END
>  <CHROM.1>
126.77714814,53.01170528,178.12718904,-65.28759779,173.72018002,-58.03699192
100.83915299,48.31300332,56.57524299,30.67531291,-1.22079495,-1.23119353
1.42448532

>  <Name>
ligand

>  <RI>
0

>  <Rbt.Current_Directory>
/home/itssahil/PROJECTS/Mol_Feturizer/New_Systems/rnas/3GX2

>  <Rbt.Executable>
rbdock ($Id: //depot/dev/client3/rdock/2013.1/src/exe/rbdock.cxx#4 $)

>  <Rbt.Library>
libRbt.so (2013.1, Build901 2013/11/27)

>  <Rbt.Parameter_File>
/export/apps/rDock/src/rDock_2013.1_src/data/scripts/dock_solv.prm

>  <Rbt.Receptor>
prm/pocket_docking_5.prm

>  <SCORE>
-12.2982

>  <SCORE.INTER>
-9.06549

>  <SCORE.INTER.CONST>
1

>  <SCORE.INTER.POLAR>
0

>  <SCORE.INTER.ROT>
7

>  <SCORE.INTER.SOLV>
17.2271

>  <SCORE.INTER.VDW>
-20.0527

>  <SCORE.INTER.norm>
-0.335759

>  <SCORE.INTRA>
-3.23274

>  <SCORE.INTRA.DIHEDRAL>
-8.62504

>  <SCORE.INTRA.DIHEDRAL.0>
13.9704

>  <SCORE.INTRA.POLAR>
0

>  <SCORE.INTRA.POLAR.0>
0

>  <SCORE.INTRA.REPUL>
0

>  <SCORE.INTRA.REPUL.0>
0

>  <SCORE.INTRA.SOLV>
2.83554

>  <SCORE.INTRA.SOLV.lig_0>
-70.9758

>  <SCORE.INTRA.VDW>
-0.337991

>  <SCORE.INTRA.VDW.0>
-2.70686

>  <SCORE.INTRA.norm>
-0.119731

>  <SCORE.RESTR>
0

>  <SCORE.RESTR.CAVITY>
0

>  <SCORE.RESTR.norm>
0

>  <SCORE.SYSTEM>
0

>  <SCORE.SYSTEM.CONST>
0

>  <SCORE.SYSTEM.DIHEDRAL>
0

>  <SCORE.SYSTEM.SOLV>
0

>  <SCORE.SYSTEM.norm>
0

>  <SCORE.heavy>
27

>  <SCORE.norm>
-0.45549

>  <RMSD>
2.237

$$$$
ligand
 OpenBabel11021811473D
libRbt.so/2013.1/901 2013/11/27
 27 29  0  0  0  0  0  0  0  0999 V2000
   47.2675   58.3871   29.0115 N   0  0  0  0  0  0  0  0  0  0  0  0
   48.0434   57.7185   27.9694 C   0  0  2  0  0  0  0  0  0  0  0  0
   47.2033   57.2189   26.7921 C   0  0  0  0  0  0  0  0  0  0  0  0
   47.7479   56.9723   25.7677 O   0  0  0  0  0  0  0  0  0  0  0  0
   49.0406   56.6615   28.4884 C   0  0  0  0  0  0  0  0  0  0  0  0
   48.5109   55.2789   28.9608 C   0  0  0  0  0  0  0  0  0  0  0  0
   49.5803   54.3027   29.5192 C   0  0  2  0  0  0  0  0  0  0  0  0
   49.1721   52.9007   29.4325 N   0  0  0  0  0  0  0  0  0  0  0  0
   50.0650   54.7125   30.9441 C   0  0  0  0  0  0  0  0  0  0  0  0
   49.0425   54.6503   32.1286 C   0  0  1  0  0  0  0  0  0  0  0  0
   48.8136   55.8455   32.9324 O   0  0  0  0  0  0  0  0  0  0  0  0
   47.6175   54.1247   31.7985 C   0  0  1  0  0  0  0  0  0  0  0  0
   47.4836   52.7503   31.4135 O   0  0  0  0  0  0  0  0  0  0  0  0
   46.7010   54.6931   32.9259 C   0  0  1  0  0  0  0  0  0  0  0  0
   46.1810   53.7913   33.8730 O   0  0  0  0  0  0  0  0  0  0  0  0
   47.4882   55.9114   33.4189 C   0  0  2  0  0  0  0  0  0  0  0  0
   45.9585   56.6171   27.0640 O   0  0  0  0  0  0  0  0  0  0  0  0
   48.1964   61.0485   31.8078 N   0  0  0  0  0  0  0  0  0  0  0  0
   49.1863   60.0959   32.0749 C   0  0  0  0  0  0  0  0  0  0  0  0
   48.8103   58.7503   32.5028 N   0  0  0  0  0  0  0  0  0  0  0  0
   47.4892   58.4178   32.6419 C   0  0  0  0  0  0  0  0  0  0  0  0
   46.4993   59.3831   32.3730 C   0  0  0  0  0  0  0  0  0  0  0  0
   46.8748   60.7241   31.9473 C   0  0  0  0  0  0  0  0  0  0  0  0
   45.8479   61.7281   31.6665 N   0  0  0  0  0  0  0  0  0  0  0  0
   45.2111   58.7742   32.5981 N   0  0  0  0  0  0  0  0  0  0  0  0
   45.4315   57.4378   33.0066 C   0  0  0  0  0  0  0  0  0  0  0  0
   46.8356   57.1974   33.0379 N   0  0  0  0  0  0  0  0  0  0  0  0
  2  1  1  1  0  0  0
  2  3  1  0  0  0  0
  2  5  1  0  0  0  0
  3  4  1  0  0  0  0
  3 17  1  0  0  0  0
  5  6  1  0  0  0  0
  7  6  1  1  0  0  0
  7  8  1  0  0  0  0
  7  9  1  0  0  0  0
 10  9  1  6  0  0  0
 10 11  1  0  0  0  0
 10 12  1  0  0  0  0
 11 16  1  0  0  0  0
 12 13  1  1  0  0  0
 12 14  1  0  0  0  0
 14 15  1  1  0  0  0
 14 16  1  0  0  0  0
 16 27  1  6  0  0  0
 18 19  2  0  0  0  0
 18 23  1  0  0  0  0
 19 20  1  0  0  0  0
 20 21  2  0  0  0  0
 21 22  1  0  0  0  0
 21 27  1  0  0  0  0
 22 23  2  0  0  0  0
 22 25  1  0  0  0  0
 23 24  1  0  0  0  0
 25 26  2  0  0  0  0
 26 27  1  0  0  0  0
M  END
>  <CHROM.1>
161.43658820,75.70242056,-177.62524105,-156.46275529,65.83088345,-124.75840829
-19.95730788,47.63892950,56.80989602,30.91315510,-2.92905111,-1.33972262
2.14330117

>  <Name>
ligand

>  <RI>
0

>  <Rbt.Current_Directory>
/home/itssahil/PROJECTS/Mol_Feturizer/New_Systems/rnas/3GX2

>  <Rbt.Executable>
rbdock ($Id: //depot/dev/client3/rdock/2013.1/src/exe/rbdock.cxx#4 $)

>  <Rbt.Library>
libRbt.so (2013.1, Build901 2013/11/27)

>  <Rbt.Parameter_File>
/export/apps/rDock/src/rDock_2013.1_src/data/scripts/dock_solv.prm

>  <Rbt.Receptor>
prm/pocket_docking_2.prm

>  <SCORE>
-6.92426

>  <SCORE.INTER>
-8.10287

>  <SCORE.INTER.CONST>
1

>  <SCORE.INTER.POLAR>
0

>  <SCORE.INTER.ROT>
7

>  <SCORE.INTER.SOLV>
20.3217

>  <SCORE.INTER.VDW>
-20.4425

>  <SCORE.INTER.norm>
-0.300106

>  <SCORE.INTRA>
1.17861

>  <SCORE.INTRA.DIHEDRAL>
-1.0845

>  <SCORE.INTRA.DIHEDRAL.0>
13.9704

>  <SCORE.INTRA.POLAR>
0

>  <SCORE.INTRA.POLAR.0>
0

>  <SCORE.INTRA.REPUL>
0

>  <SCORE.INTRA.REPUL.0>
0

>  <SCORE.INTRA.SOLV>
3.42156

>  <SCORE.INTRA.SOLV.lig_0>
-70.9758

>  <SCORE.INTRA.VDW>
0.0100825

>  <SCORE.INTRA.VDW.0>
-2.70686

>  <SCORE.INTRA.norm>
0.0436523

>  <SCORE.RESTR>
0

>  <SCORE.RESTR.CAVITY>
0

>  <SCORE.RESTR.norm>
0

>  <SCORE.SYSTEM>
0

>  <SCORE.SYSTEM.CONST>
0

>  <SCORE.SYSTEM.DIHEDRAL>
0

>  <SCORE.SYSTEM.SOLV>
0

>  <SCORE.SYSTEM.norm>
0

>  <SCORE.heavy>
27

>  <SCORE.norm>
-0.256454

>  <RMSD>
2.239

$$$$
ligand
 OpenBabel11021811473D
libRbt.so/2013.1/901 2013/11/27
 27 29  0  0  0  0  0  0  0  0999 V2000
   51.6837   55.7944   27.3140 N   0  0  0  0  0  0  0  0  0  0  0  0
   50.2627   55.4593   27.2557 C   0  0  2  0  0  0  0  0  0  0  0  0
   49.6756   55.4819   25.8429 C   0  0  0  0  0  0  0  0  0  0  0  0
   50.1713   54.7996   25.0089 O   0  0  0  0  0  0  0  0  0  0  0  0
   49.3842   56.2019   28.2843 C   0  0  0  0  0  0  0  0  0  0  0  0
   49.4682   55.8090   29.7855 C   0  0  0  0  0  0  0  0  0  0  0  0
   48.8520   54.4341   30.1575 C   0  0  2  0  0  0  0  0  0  0  0  0
   47.3929   54.4720   30.2558 N   0  0  0  0  0  0  0  0  0  0  0  0
   49.5340   53.8026   31.4102 C   0  0  0  0  0  0  0  0  0  0  0  0
   49.3339   54.4960   32.8000 C   0  0  1  0  0  0  0  0  0  0  0  0
   49.3258   55.9527   32.8720 O   0  0  0  0  0  0  0  0  0  0  0  0
   48.0951   54.0586   33.6305 C   0  0  1  0  0  0  0  0  0  0  0  0
   48.0638   52.7146   34.1285 O   0  0  0  0  0  0  0  0  0  0  0  0
   47.8221   55.2411   34.6109 C   0  0  1  0  0  0  0  0  0  0  0  0
   48.0823   55.0393   35.9792 O   0  0  0  0  0  0  0  0  0  0  0  0
   48.4801   56.4279   33.8999 C   0  0  2  0  0  0  0  0  0  0  0  0
   48.3384   55.8952   25.6787 O   0  0  0  0  0  0  0  0  0  0  0  0
   47.6461   61.1602   31.3707 N   0  0  0  0  0  0  0  0  0  0  0  0
   48.8745   60.5749   31.6984 C   0  0  0  0  0  0  0  0  0  0  0  0
   48.9105   59.2858   32.3855 N   0  0  0  0  0  0  0  0  0  0  0  0
   47.7432   58.6469   32.7087 C   0  0  0  0  0  0  0  0  0  0  0  0
   46.5113   59.2438   32.3770 C   0  0  0  0  0  0  0  0  0  0  0  0
   46.4762   60.5289   31.6929 C   0  0  0  0  0  0  0  0  0  0  0  0
   45.1973   61.1501   31.3466 N   0  0  0  0  0  0  0  0  0  0  0  0
   45.4570   58.3690   32.8286 N   0  0  0  0  0  0  0  0  0  0  0  0
   46.0615   57.2435   33.4364 C   0  0  0  0  0  0  0  0  0  0  0  0
   47.4765   57.3960   33.3703 N   0  0  0  0  0  0  0  0  0  0  0  0
  2  1  1  6  0  0  0
  2  3  1  0  0  0  0
  2  5  1  0  0  0  0
  3  4  1  0  0  0  0
  3 17  1  0  0  0  0
  5  6  1  0  0  0  0
  7  6  1  1  0  0  0
  7  8  1  0  0  0  0
  7  9  1  0  0  0  0
 10  9  1  6  0  0  0
 10 11  1  0  0  0  0
 10 12  1  0  0  0  0
 11 16  1  0  0  0  0
 12 13  1  1  0  0  0
 12 14  1  0  0  0  0
 14 15  1  1  0  0  0
 14 16  1  0  0  0  0
 16 27  1  6  0  0  0
 18 19  2  0  0  0  0
 18 23  1  0  0  0  0
 19 20  1  0  0  0  0
 20 21  2  0  0  0  0
 21 22  1  0  0  0  0
 21 27  1  0  0  0  0
 22 23  2  0  0  0  0
 22 25  1  0  0  0  0
 23 24  1  0  0  0  0
 25 26  2  0  0  0  0
 26 27  1  0  0  0  0
M  END
>  <CHROM.1>
56.53548098,-72.51288623,-71.12578800,-78.56147810,67.67306524,-38.62693459
-60.05502813,48.34141287,56.56648007,31.14581445,0.57468430,1.16355167,-0.92803473

>  <Name>
ligand

>  <RI>
0

>  <Rbt.Current_Directory>
/home/itssahil/PROJECTS/Mol_Feturizer/New_Systems/rnas/3GX2

>  <Rbt.Executable>
rbdock ($Id: //depot/dev/client3/rdock/2013.1/src/exe/rbdock.cxx#4 $)

>  <Rbt.Library>
libRbt.so (2013.1, Build901 2013/11/27)

>  <Rbt.Parameter_File>
/export/apps/rDock/src/rDock_2013.1_src/data/scripts/dock_solv.prm

>  <Rbt.Receptor>
prm/pocket_docking_5.prm

>  <SCORE>
-10.6417

>  <SCORE.INTER>
-9.41267

>  <SCORE.INTER.CONST>
1

>  <SCORE.INTER.POLAR>
0

>  <SCORE.INTER.ROT>
7

>  <SCORE.INTER.SOLV>
20.663

>  <SCORE.INTER.VDW>
-21.4294

>  <SCORE.INTER.norm>
-0.348617

>  <SCORE.INTRA>
-1.22904

>  <SCORE.INTRA.DIHEDRAL>
-5.21126

>  <SCORE.INTRA.DIHEDRAL.0>
13.9704

>  <SCORE.INTRA.POLAR>
0

>  <SCORE.INTRA.POLAR.0>
0

>  <SCORE.INTRA.REPUL>
0

>  <SCORE.INTRA.REPUL.0>
0

>  <SCORE.INTRA.SOLV>
2.36493

>  <SCORE.INTRA.SOLV.lig_0>
-70.9758

>  <SCORE.INTRA.VDW>
0.194123

>  <SCORE.INTRA.VDW.0>
-2.70686

>  <SCORE.INTRA.norm>
-0.0455201

>  <SCORE.RESTR>
0

>  <SCORE.RESTR.CAVITY>
0

>  <SCORE.RESTR.norm>
0

>  <SCORE.SYSTEM>
0

>  <SCORE.SYSTEM.CONST>
0

>  <SCORE.SYSTEM.DIHEDRAL>
0

>  <SCORE.SYSTEM.SOLV>
0

>  <SCORE.SYSTEM.norm>
0

>  <SCORE.heavy>
27

>  <SCORE.norm>
-0.394137

>  <RMSD>
2.348

$$$$
ligand
 OpenBabel11021811473D
libRbt.so/2013.1/901 2013/11/27
 27 29  0  0  0  0  0  0  0  0999 V2000
   47.8290   54.8267   27.4322 N   0  0  0  0  0  0  0  0  0  0  0  0
   48.7042   54.2738   28.4634 C   0  0  2  0  0  0  0  0  0  0  0  0
   50.1820   54.2330   28.0689 C   0  0  0  0  0  0  0  0  0  0  0  0
   50.4647   53.9890   26.9432 O   0  0  0  0  0  0  0  0  0  0  0  0
   48.2104   52.9501   29.0840 C   0  0  0  0  0  0  0  0  0  0  0  0
   47.0658   52.9795   30.1348 C   0  0  0  0  0  0  0  0  0  0  0  0
   47.3496   53.8063   31.4171 C   0  0  2  0  0  0  0  0  0  0  0  0
   47.5183   55.2343   31.1481 N   0  0  0  0  0  0  0  0  0  0  0  0
   48.5120   53.2009   32.2630 C   0  0  0  0  0  0  0  0  0  0  0  0
   49.1101   54.0548   33.4315 C   0  0  1  0  0  0  0  0  0  0  0  0
   49.8306   55.2832   33.1164 O   0  0  0  0  0  0  0  0  0  0  0  0
   48.1380   54.4566   34.5758 C   0  0  1  0  0  0  0  0  0  0  0  0
   47.6148   53.4123   35.4070 O   0  0  0  0  0  0  0  0  0  0  0  0
   48.7875   55.7085   35.2430 C   0  0  1  0  0  0  0  0  0  0  0  0
   49.3231   55.5654   36.5367 O   0  0  0  0  0  0  0  0  0  0  0  0
   49.6829   56.2587   34.1284 C   0  0  2  0  0  0  0  0  0  0  0  0
   51.1091   54.9313   28.8681 O   0  0  0  0  0  0  0  0  0  0  0  0
   45.3605   58.9924   32.3035 N   0  0  0  0  0  0  0  0  0  0  0  0
   45.3971   57.6766   32.7789 C   0  0  0  0  0  0  0  0  0  0  0  0
   46.6595   57.0977   33.2331 N   0  0  0  0  0  0  0  0  0  0  0  0
   47.8088   57.8414   33.1965 C   0  0  0  0  0  0  0  0  0  0  0  0
   47.7635   59.1643   32.7148 C   0  0  0  0  0  0  0  0  0  0  0  0
   46.5051   59.7402   32.2616 C   0  0  0  0  0  0  0  0  0  0  0  0
   46.4559   61.1147   31.7618 N   0  0  0  0  0  0  0  0  0  0  0  0
   49.0974   59.7090   32.7840 N   0  0  0  0  0  0  0  0  0  0  0  0
   49.9462   58.7055   33.3075 C   0  0  0  0  0  0  0  0  0  0  0  0
   49.1666   57.5423   33.5711 N   0  0  0  0  0  0  0  0  0  0  0  0
  2  1  1  6  0  0  0
  2  3  1  0  0  0  0
  2  5  1  0  0  0  0
  3  4  1  0  0  0  0
  3 17  1  0  0  0  0
  5  6  1  0  0  0  0
  7  6  1  6  0  0  0
  7  8  1  0  0  0  0
  7  9  1  0  0  0  0
 10  9  1  6  0  0  0
 10 11  1  0  0  0  0
 10 12  1  0  0  0  0
 11 16  1  0  0  0  0
 12 13  1  1  0  0  0
 12 14  1  0  0  0  0
 14 15  1  1  0  0  0
 14 16  1  0  0  0  0
 16 27  1  6  0  0  0
 18 19  2  0  0  0  0
 18 23  1  0  0  0  0
 19 20  1  0  0  0  0
 20 21  2  0  0  0  0
 21 22  1  0  0  0  0
 21 27  1  0  0  0  0
 22 23  2  0  0  0  0
 22 25  1  0  0  0  0
 23 24  1  0  0  0  0
 25 26  2  0  0  0  0
 26 27  1  0  0  0  0
M  END
>  <CHROM.1>
-36.43916906,-77.17103688,-59.63545221,64.30267448,168.27546803,-66.30754897
77.35709681,48.32920147,55.94508975,31.98457560,0.77206833,1.27536863,-1.46684427

>  <Name>
ligand

>  <RI>
0

>  <Rbt.Current_Directory>
/home/itssahil/PROJECTS/Mol_Feturizer/New_Systems/rnas/3GX2

>  <Rbt.Executable>
rbdock ($Id: //depot/dev/client3/rdock/2013.1/src/exe/rbdock.cxx#4 $)

>  <Rbt.Library>
libRbt.so (2013.1, Build901 2013/11/27)

>  <Rbt.Parameter_File>
/export/apps/rDock/src/rDock_2013.1_src/data/scripts/dock_solv.prm

>  <Rbt.Receptor>
prm/pocket_docking_3.prm

>  <SCORE>
-13.1978

>  <SCORE.INTER>
-11.0762

>  <SCORE.INTER.CONST>
1

>  <SCORE.INTER.POLAR>
0

>  <SCORE.INTER.ROT>
7

>  <SCORE.INTER.SOLV>
15.0079

>  <SCORE.INTER.VDW>
-20.6535

>  <SCORE.INTER.norm>
-0.410231

>  <SCORE.INTRA>
-2.13063

>  <SCORE.INTRA.DIHEDRAL>
-7.93631

>  <SCORE.INTRA.DIHEDRAL.0>
13.9704

>  <SCORE.INTRA.POLAR>
0

>  <SCORE.INTRA.POLAR.0>
0

>  <SCORE.INTRA.REPUL>
0

>  <SCORE.INTRA.REPUL.0>
0

>  <SCORE.INTRA.SOLV>
5.90026

>  <SCORE.INTRA.SOLV.lig_0>
-70.9758

>  <SCORE.INTRA.VDW>
-1.1126

>  <SCORE.INTRA.VDW.0>
-2.70686

>  <SCORE.INTRA.norm>
-0.078912

>  <SCORE.RESTR>
0.00908633

>  <SCORE.RESTR.CAVITY>
0.00908633

>  <SCORE.RESTR.norm>
0.000336531

>  <SCORE.SYSTEM>
0

>  <SCORE.SYSTEM.CONST>
0

>  <SCORE.SYSTEM.DIHEDRAL>
0

>  <SCORE.SYSTEM.SOLV>
0

>  <SCORE.SYSTEM.norm>
0

>  <SCORE.heavy>
27

>  <SCORE.norm>
-0.488806

>  <RMSD>
2.352

$$$$
ligand
 OpenBabel11021811483D
libRbt.so/2013.1/901 2013/11/27
 27 29  0  0  0  0  0  0  0  0999 V2000
   44.8499   52.3630   28.7811 N   0  0  0  0  0  0  0  0  0  0  0  0
   46.0054   53.2539   28.8587 C   0  0  2  0  0  0  0  0  0  0  0  0
   46.0402   54.3243   27.7659 C   0  0  0  0  0  0  0  0  0  0  0  0
   45.8777   53.9932   26.6386 O   0  0  0  0  0  0  0  0  0  0  0  0
   47.3594   52.5367   29.0416 C   0  0  0  0  0  0  0  0  0  0  0  0
   48.6617   53.3783   29.1443 C   0  0  0  0  0  0  0  0  0  0  0  0
   48.8121   54.2326   30.4312 C   0  0  2  0  0  0  0  0  0  0  0  0
   49.7501   55.3436   30.2707 N   0  0  0  0  0  0  0  0  0  0  0  0
   49.1086   53.3572   31.6878 C   0  0  0  0  0  0  0  0  0  0  0  0
   49.2324   54.0644   33.0796 C   0  0  1  0  0  0  0  0  0  0  0  0
   49.9626   55.3234   33.1736 O   0  0  0  0  0  0  0  0  0  0  0  0
   47.9107   54.3223   33.8557 C   0  0  1  0  0  0  0  0  0  0  0  0
   47.1809   53.1837   34.3313 O   0  0  0  0  0  0  0  0  0  0  0  0
   48.2369   55.4853   34.8431 C   0  0  1  0  0  0  0  0  0  0  0  0
   48.3029   55.1874   36.2171 O   0  0  0  0  0  0  0  0  0  0  0  0
   49.4347   56.1687   34.1760 C   0  0  2  0  0  0  0  0  0  0  0  0
   45.7788   55.6610   28.1276 O   0  0  0  0  0  0  0  0  0  0  0  0
   45.5304   59.3597   32.1607 N   0  0  0  0  0  0  0  0  0  0  0  0
   45.4064   58.0366   32.6001 C   0  0  0  0  0  0  0  0  0  0  0  0
   46.5734   57.3248   33.1163 N   0  0  0  0  0  0  0  0  0  0  0  0
   47.7901   57.9506   33.1731 C   0  0  0  0  0  0  0  0  0  0  0  0
   47.9066   59.2816   32.7271 C   0  0  0  0  0  0  0  0  0  0  0  0
   46.7433   59.9901   32.2121 C   0  0  0  0  0  0  0  0  0  0  0  0
   46.8621   61.3732   31.7491 N   0  0  0  0  0  0  0  0  0  0  0  0
   49.2802   59.6887   32.8954 N   0  0  0  0  0  0  0  0  0  0  0  0
   49.9902   58.5942   33.4428 C   0  0  0  0  0  0  0  0  0  0  0  0
   49.0846   57.5093   33.6238 N   0  0  0  0  0  0  0  0  0  0  0  0
  2  1  1  6  0  0  0
  2  3  1  0  0  0  0
  2  5  1  0  0  0  0
  3  4  1  0  0  0  0
  3 17  1  0  0  0  0
  5  6  1  0  0  0  0
  7  6  1  6  0  0  0
  7  8  1  0  0  0  0
  7  9  1  0  0  0  0
 10  9  1  6  0  0  0
 10 11  1  0  0  0  0
 10 12  1  0  0  0  0
 11 16  1  0  0  0  0
 12 13  1  1  0  0  0
 12 14  1  0  0  0  0
 14 15  1  1  0  0  0
 14 16  1  0  0  0  0
 16 27  1  6  0  0  0
 18 19  2  0  0  0  0
 18 23  1  0  0  0  0
 19 20  1  0  0  0  0
 20 21  2  0  0  0  0
 21 22  1  0  0  0  0
 21 27  1  0  0  0  0
 22 23  2  0  0  0  0
 22 25  1  0  0  0  0
 23 24  1  0  0  0  0
 25 26  2  0  0  0  0
 26 27  1  0  0  0  0
M  END
>  <CHROM.1>
-49.12742240,-179.71489845,68.62788483,-158.57640121,-177.64093393,-42.06636081
96.06791554,47.68287806,55.88950400,31.75022116,2.04677298,1.07541888,-2.75285795

>  <Name>
ligand

>  <RI>
0

>  <Rbt.Current_Directory>
/home/itssahil/PROJECTS/Mol_Feturizer/New_Systems/rnas/3GX2

>  <Rbt.Executable>
rbdock ($Id: //depot/dev/client3/rdock/2013.1/src/exe/rbdock.cxx#4 $)

>  <Rbt.Library>
libRbt.so (2013.1, Build901 2013/11/27)

>  <Rbt.Parameter_File>
/export/apps/rDock/src/rDock_2013.1_src/data/scripts/dock_solv.prm

>  <Rbt.Receptor>
prm/pocket_docking_8.prm

>  <SCORE>
-12.296

>  <SCORE.INTER>
-9.63878

>  <SCORE.INTER.CONST>
1

>  <SCORE.INTER.POLAR>
0

>  <SCORE.INTER.ROT>
7

>  <SCORE.INTER.SOLV>
21.9307

>  <SCORE.INTER.VDW>
-22.0027

>  <SCORE.INTER.norm>
-0.356992

>  <SCORE.INTRA>
-2.65725

>  <SCORE.INTRA.DIHEDRAL>
-6.60008

>  <SCORE.INTRA.DIHEDRAL.0>
13.9704

>  <SCORE.INTRA.POLAR>
0

>  <SCORE.INTRA.POLAR.0>
0

>  <SCORE.INTRA.REPUL>
0

>  <SCORE.INTRA.REPUL.0>
0

>  <SCORE.INTRA.SOLV>
1.54787

>  <SCORE.INTRA.SOLV.lig_0>
-70.9758

>  <SCORE.INTRA.VDW>
-0.131149

>  <SCORE.INTRA.VDW.0>
-2.70686

>  <SCORE.INTRA.norm>
-0.0984167

>  <SCORE.RESTR>
0

>  <SCORE.RESTR.CAVITY>
0

>  <SCORE.RESTR.norm>
0

>  <SCORE.SYSTEM>
0

>  <SCORE.SYSTEM.CONST>
0

>  <SCORE.SYSTEM.DIHEDRAL>
0

>  <SCORE.SYSTEM.SOLV>
0

>  <SCORE.SYSTEM.norm>
0

>  <SCORE.heavy>
27

>  <SCORE.norm>
-0.455409

>  <RMSD>
2.357

$$$$
ligand
 OpenBabel11021811473D
libRbt.so/2013.1/901 2013/11/27
 27 29  0  0  0  0  0  0  0  0999 V2000
   48.1058   55.5468   26.4998 N   0  0  0  0  0  0  0  0  0  0  0  0
   48.7002   56.2571   27.6300 C   0  0  2  0  0  0  0  0  0  0  0  0
   48.4030   57.7579   27.6474 C   0  0  0  0  0  0  0  0  0  0  0  0
   49.0916   58.4675   28.3025 O   0  0  0  0  0  0  0  0  0  0  0  0
   50.1884   55.9354   27.8808 C   0  0  0  0  0  0  0  0  0  0  0  0
   50.5850   54.5387   28.4349 C   0  0  0  0  0  0  0  0  0  0  0  0
   49.8379   54.0858   29.7176 C   0  0  2  0  0  0  0  0  0  0  0  0
   48.4017   53.9053   29.5062 N   0  0  0  0  0  0  0  0  0  0  0  0
   50.1674   54.9936   30.9426 C   0  0  0  0  0  0  0  0  0  0  0  0
   49.2493   54.9043   32.2081 C   0  0  1  0  0  0  0  0  0  0  0  0
   48.9120   56.1270   32.9281 O   0  0  0  0  0  0  0  0  0  0  0  0
   47.8925   54.1650   32.0398 C   0  0  1  0  0  0  0  0  0  0  0  0
   47.9261   52.7555   31.7801 O   0  0  0  0  0  0  0  0  0  0  0  0
   46.9867   54.7069   33.1887 C   0  0  1  0  0  0  0  0  0  0  0  0
   46.6660   53.8345   34.2455 O   0  0  0  0  0  0  0  0  0  0  0  0
   47.6278   56.0595   33.5147 C   0  0  2  0  0  0  0  0  0  0  0  0
   47.6843   58.3120   26.5694 O   0  0  0  0  0  0  0  0  0  0  0  0
   47.4922   61.2145   31.8135 N   0  0  0  0  0  0  0  0  0  0  0  0
   48.6222   60.4526   32.1322 C   0  0  0  0  0  0  0  0  0  0  0  0
   48.4699   59.0694   32.5778 N   0  0  0  0  0  0  0  0  0  0  0  0
   47.2222   58.5150   32.6830 C   0  0  0  0  0  0  0  0  0  0  0  0
   46.0902   59.2894   32.3621 C   0  0  0  0  0  0  0  0  0  0  0  0
   46.2427   60.6680   31.9188 C   0  0  0  0  0  0  0  0  0  0  0  0
   45.0679   61.4738   31.5840 N   0  0  0  0  0  0  0  0  0  0  0  0
   44.9197   58.4698   32.5603 N   0  0  0  0  0  0  0  0  0  0  0  0
   45.3537   57.1988   33.0049 C   0  0  0  0  0  0  0  0  0  0  0  0
   46.7762   57.2063   33.0853 N   0  0  0  0  0  0  0  0  0  0  0  0
  2  1  1  6  0  0  0
  2  3  1  0  0  0  0
  2  5  1  0  0  0  0
  3  4  1  0  0  0  0
  3 17  1  0  0  0  0
  5  6  1  0  0  0  0
  7  6  1  6  0  0  0
  7  8  1  0  0  0  0
  7  9  1  0  0  0  0
 10  9  1  6  0  0  0
 10 11  1  0  0  0  0
 10 12  1  0  0  0  0
 11 16  1  0  0  0  0
 12 13  1  1  0  0  0
 12 14  1  0  0  0  0
 14 15  1  1  0  0  0
 14 16  1  0  0  0  0
 16 27  1  6  0  0  0
 18 19  2  0  0  0  0
 18 23  1  0  0  0  0
 19 20  1  0  0  0  0
 20 21  2  0  0  0  0
 21 22  1  0  0  0  0
 21 27  1  0  0  0  0
 22 23  2  0  0  0  0
 22 25  1  0  0  0  0
 23 24  1  0  0  0  0
 25 26  2  0  0  0  0
 26 27  1  0  0  0  0
M  END
>  <CHROM.1>
-161.26326936,-70.66985458,-52.05639474,64.27930887,165.16853550,-140.74121127
-27.61564592,47.90434413,56.82325683,30.94889752,-0.24747534,1.11734507,-0.68249392

>  <Name>
ligand

>  <RI>
0

>  <Rbt.Current_Directory>
/home/itssahil/PROJECTS/Mol_Feturizer/New_Systems/rnas/3GX2

>  <Rbt.Executable>
rbdock ($Id: //depot/dev/client3/rdock/2013.1/src/exe/rbdock.cxx#4 $)

>  <Rbt.Library>
libRbt.so (2013.1, Build901 2013/11/27)

>  <Rbt.Parameter_File>
/export/apps/rDock/src/rDock_2013.1_src/data/scripts/dock_solv.prm

>  <Rbt.Receptor>
prm/pocket_docking_2.prm

>  <SCORE>
-5.55714

>  <SCORE.INTER>
-9.41835

>  <SCORE.INTER.CONST>
1

>  <SCORE.INTER.POLAR>
0

>  <SCORE.INTER.ROT>
7

>  <SCORE.INTER.SOLV>
20.2938

>  <SCORE.INTER.VDW>
-21.3102

>  <SCORE.INTER.norm>
-0.348828

>  <SCORE.INTRA>
3.78588

>  <SCORE.INTRA.DIHEDRAL>
-3.96381

>  <SCORE.INTRA.DIHEDRAL.0>
13.9704

>  <SCORE.INTRA.POLAR>
0

>  <SCORE.INTRA.POLAR.0>
0

>  <SCORE.INTRA.REPUL>
0

>  <SCORE.INTRA.REPUL.0>
0

>  <SCORE.INTRA.SOLV>
6.39309

>  <SCORE.INTRA.SOLV.lig_0>
-70.9758

>  <SCORE.INTRA.VDW>
2.57124

>  <SCORE.INTRA.VDW.0>
-2.70686

>  <SCORE.INTRA.norm>
0.140218

>  <SCORE.RESTR>
0.0753424

>  <SCORE.RESTR.CAVITY>
0.0753424

>  <SCORE.RESTR.norm>
0.00279046

>  <SCORE.SYSTEM>
0

>  <SCORE.SYSTEM.CONST>
0

>  <SCORE.SYSTEM.DIHEDRAL>
0

>  <SCORE.SYSTEM.SOLV>
0

>  <SCORE.SYSTEM.norm>
0

>  <SCORE.heavy>
27

>  <SCORE.norm>
-0.20582

>  <RMSD>
2.378

$$$$
ligand
 OpenBabel11021811473D
libRbt.so/2013.1/901 2013/11/27
 27 29  0  0  0  0  0  0  0  0999 V2000
   45.9433   55.0816   26.6843 N   0  0  0  0  0  0  0  0  0  0  0  0
   46.6852   53.9612   27.2582 C   0  0  2  0  0  0  0  0  0  0  0  0
   45.8519   52.6906   27.4389 C   0  0  0  0  0  0  0  0  0  0  0  0
   45.9444   51.8286   26.6294 O   0  0  0  0  0  0  0  0  0  0  0  0
   47.5210   54.3150   28.5061 C   0  0  0  0  0  0  0  0  0  0  0  0
   48.5709   53.2988   29.0354 C   0  0  0  0  0  0  0  0  0  0  0  0
   49.3894   53.7580   30.2714 C   0  0  2  0  0  0  0  0  0  0  0  0
   50.5798   52.9396   30.5020 N   0  0  0  0  0  0  0  0  0  0  0  0
   48.4987   53.9153   31.5423 C   0  0  0  0  0  0  0  0  0  0  0  0
   49.0862   54.6773   32.7778 C   0  0  1  0  0  0  0  0  0  0  0  0
   49.7979   55.9324   32.5649 O   0  0  0  0  0  0  0  0  0  0  0  0
   48.1074   54.9785   33.9469 C   0  0  1  0  0  0  0  0  0  0  0  0
   47.5898   53.8669   34.6896 O   0  0  0  0  0  0  0  0  0  0  0  0
   48.7448   56.1777   34.7148 C   0  0  1  0  0  0  0  0  0  0  0  0
   49.2773   55.9354   35.9949 O   0  0  0  0  0  0  0  0  0  0  0  0
   49.6393   56.8225   33.6514 C   0  0  2  0  0  0  0  0  0  0  0  0
   45.3980   52.3645   28.7325 O   0  0  0  0  0  0  0  0  0  0  0  0
   45.2930   59.6718   32.0773 N   0  0  0  0  0  0  0  0  0  0  0  0
   45.3373   58.3241   32.4522 C   0  0  0  0  0  0  0  0  0  0  0  0
   46.6054   57.7168   32.8499 N   0  0  0  0  0  0  0  0  0  0  0  0
   47.7525   58.4647   32.8584 C   0  0  0  0  0  0  0  0  0  0  0  0
   47.6993   59.8199   32.4779 C   0  0  0  0  0  0  0  0  0  0  0  0
   46.4353   60.4243   32.0810 C   0  0  0  0  0  0  0  0  0  0  0  0
   46.3780   61.8322   31.6863 N   0  0  0  0  0  0  0  0  0  0  0  0
   49.0325   60.3621   32.5754 N   0  0  0  0  0  0  0  0  0  0  0  0
   49.8887   59.3248   33.0141 C   0  0  0  0  0  0  0  0  0  0  0  0
   49.1145   58.1427   33.1968 N   0  0  0  0  0  0  0  0  0  0  0  0
  2  1  1  1  0  0  0
  2  3  1  0  0  0  0
  2  5  1  0  0  0  0
  3  4  1  0  0  0  0
  3 17  1  0  0  0  0
  5  6  1  0  0  0  0
  7  6  1  6  0  0  0
  7  8  1  0  0  0  0
  7  9  1  0  0  0  0
 10  9  1  6  0  0  0
 10 11  1  0  0  0  0
 10 12  1  0  0  0  0
 11 16  1  0  0  0  0
 12 13  1  1  0  0  0
 12 14  1  0  0  0  0
 14 15  1  1  0  0  0
 14 16  1  0  0  0  0
 16 27  1  6  0  0  0
 18 19  2  0  0  0  0
 18 23  1  0  0  0  0
 19 20  1  0  0  0  0
 20 21  2  0  0  0  0
 21 22  1  0  0  0  0
 21 27  1  0  0  0  0
 22 23  2  0  0  0  0
 22 25  1  0  0  0  0
 23 24  1  0  0  0  0
 25 26  2  0  0  0  0
 26 27  1  0  0  0  0
M  END
>  <CHROM.1>
99.59422933,-167.65603836,178.41624138,-164.66458218,-166.14386465,44.94715420
78.20606046,47.78062022,56.05598635,31.46696831,1.82513707,0.97816917,-2.62341970

>  <Name>
ligand

>  <RI>
0

>  <Rbt.Current_Directory>
/home/itssahil/PROJECTS/Mol_Feturizer/New_Systems/rnas/3GX2

>  <Rbt.Executable>
rbdock ($Id: //depot/dev/client3/rdock/2013.1/src/exe/rbdock.cxx#4 $)

>  <Rbt.Library>
libRbt.so (2013.1, Build901 2013/11/27)

>  <Rbt.Parameter_File>
/export/apps/rDock/src/rDock_2013.1_src/data/scripts/dock_solv.prm

>  <Rbt.Receptor>
prm/pocket_docking_7.prm

>  <SCORE>
-11.5414

>  <SCORE.INTER>
-8.47397

>  <SCORE.INTER.CONST>
1

>  <SCORE.INTER.POLAR>
0

>  <SCORE.INTER.ROT>
7

>  <SCORE.INTER.SOLV>
27.2395

>  <SCORE.INTER.VDW>
-22.9958

>  <SCORE.INTER.norm>
-0.313851

>  <SCORE.INTRA>
-3.06738

>  <SCORE.INTRA.DIHEDRAL>
-6.7694

>  <SCORE.INTRA.DIHEDRAL.0>
13.9704

>  <SCORE.INTRA.POLAR>
0

>  <SCORE.INTRA.POLAR.0>
0

>  <SCORE.INTRA.REPUL>
0

>  <SCORE.INTRA.REPUL.0>
0

>  <SCORE.INTRA.SOLV>
-0.118925

>  <SCORE.INTRA.SOLV.lig_0>
-70.9758

>  <SCORE.INTRA.VDW>
0.37678

>  <SCORE.INTRA.VDW.0>
-2.70686

>  <SCORE.INTRA.norm>
-0.113607

>  <SCORE.RESTR>
0

>  <SCORE.RESTR.CAVITY>
0

>  <SCORE.RESTR.norm>
0

>  <SCORE.SYSTEM>
0

>  <SCORE.SYSTEM.CONST>
0

>  <SCORE.SYSTEM.DIHEDRAL>
0

>  <SCORE.SYSTEM.SOLV>
0

>  <SCORE.SYSTEM.norm>
0

>  <SCORE.heavy>
27

>  <SCORE.norm>
-0.427458

>  <RMSD>
2.378

$$$$
ligand
 OpenBabel11021811473D
libRbt.so/2013.1/901 2013/11/27
 27 29  0  0  0  0  0  0  0  0999 V2000
   50.0265   53.7636   28.0735 N   0  0  0  0  0  0  0  0  0  0  0  0
   49.1385   52.6387   27.7884 C   0  0  2  0  0  0  0  0  0  0  0  0
   48.1943   52.8752   26.6078 C   0  0  0  0  0  0  0  0  0  0  0  0
   47.9350   53.9910   26.3002 O   0  0  0  0  0  0  0  0  0  0  0  0
   48.4220   52.0558   29.0245 C   0  0  0  0  0  0  0  0  0  0  0  0
   47.3956   52.9313   29.7958 C   0  0  0  0  0  0  0  0  0  0  0  0
   47.9988   53.9530   30.7962 C   0  0  2  0  0  0  0  0  0  0  0  0
   48.6706   55.0705   30.1330 N   0  0  0  0  0  0  0  0  0  0  0  0
   48.8827   53.2635   31.8809 C   0  0  0  0  0  0  0  0  0  0  0  0
   49.1911   54.0455   33.2021 C   0  0  1  0  0  0  0  0  0  0  0  0
   49.8889   55.3239   33.1240 O   0  0  0  0  0  0  0  0  0  0  0  0
   47.9926   54.3141   34.1547 C   0  0  1  0  0  0  0  0  0  0  0  0
   47.3765   53.1860   34.7895 O   0  0  0  0  0  0  0  0  0  0  0  0
   48.4271   55.5345   35.0240 C   0  0  1  0  0  0  0  0  0  0  0  0
   48.7061   55.3109   36.3853 O   0  0  0  0  0  0  0  0  0  0  0  0
   49.4910   56.2086   34.1520 C   0  0  2  0  0  0  0  0  0  0  0  0
   48.0513   51.8533   25.6481 O   0  0  0  0  0  0  0  0  0  0  0  0
   45.3028   59.0474   32.1802 N   0  0  0  0  0  0  0  0  0  0  0  0
   45.2956   57.7234   32.6339 C   0  0  0  0  0  0  0  0  0  0  0  0
   46.5261   57.1151   33.1349 N   0  0  0  0  0  0  0  0  0  0  0  0
   47.6881   57.8390   33.1634 C   0  0  0  0  0  0  0  0  0  0  0  0
   47.6870   59.1703   32.7032 C   0  0  0  0  0  0  0  0  0  0  0  0
   46.4605   59.7756   32.2033 C   0  0  0  0  0  0  0  0  0  0  0  0
   46.4572   61.1588   31.7256 N   0  0  0  0  0  0  0  0  0  0  0  0
   49.0253   59.6904   32.8423 N   0  0  0  0  0  0  0  0  0  0  0  0
   49.8323   58.6636   33.3864 C   0  0  0  0  0  0  0  0  0  0  0  0
   49.0222   57.5101   33.5941 N   0  0  0  0  0  0  0  0  0  0  0  0
  2  1  1  1  0  0  0
  2  3  1  0  0  0  0
  2  5  1  0  0  0  0
  3  4  1  0  0  0  0
  3 17  1  0  0  0  0
  5  6  1  0  0  0  0
  7  6  1  6  0  0  0
  7  8  1  0  0  0  0
  7  9  1  0  0  0  0
 10  9  1  6  0  0  0
 10 11  1  0  0  0  0
 10 12  1  0  0  0  0
 11 16  1  0  0  0  0
 12 13  1  1  0  0  0
 12 14  1  0  0  0  0
 14 15  1  1  0  0  0
 14 16  1  0  0  0  0
 16 27  1  6  0  0  0
 18 19  2  0  0  0  0
 18 23  1  0  0  0  0
 19 20  1  0  0  0  0
 20 21  2  0  0  0  0
 21 22  1  0  0  0  0
 21 27  1  0  0  0  0
 22 23  2  0  0  0  0
 22 25  1  0  0  0  0
 23 24  1  0  0  0  0
 25 26  2  0  0  0  0
 26 27  1  0  0  0  0
M  END
>  <CHROM.1>
-23.28031650,65.05124832,-80.74594360,71.24075552,-160.91941189,-59.80081298
87.52417049,48.13147471,55.60498493,31.60328691,1.27285308,1.26846485,-1.99766700

>  <Name>
ligand

>  <RI>
0

>  <Rbt.Current_Directory>
/home/itssahil/PROJECTS/Mol_Feturizer/New_Systems/rnas/3GX2

>  <Rbt.Executable>
rbdock ($Id: //depot/dev/client3/rdock/2013.1/src/exe/rbdock.cxx#4 $)

>  <Rbt.Library>
libRbt.so (2013.1, Build901 2013/11/27)

>  <Rbt.Parameter_File>
/export/apps/rDock/src/rDock_2013.1_src/data/scripts/dock_solv.prm

>  <Rbt.Receptor>
prm/pocket_docking_5.prm

>  <SCORE>
-12.8773

>  <SCORE.INTER>
-12.4188

>  <SCORE.INTER.CONST>
1

>  <SCORE.INTER.POLAR>
0

>  <SCORE.INTER.ROT>
7

>  <SCORE.INTER.SOLV>
15.0901

>  <SCORE.INTER.VDW>
-21.5759

>  <SCORE.INTER.norm>
-0.459955

>  <SCORE.INTRA>
-0.461533

>  <SCORE.INTRA.DIHEDRAL>
-6.11427

>  <SCORE.INTRA.DIHEDRAL.0>
13.9704

>  <SCORE.INTRA.POLAR>
0

>  <SCORE.INTRA.POLAR.0>
0

>  <SCORE.INTRA.REPUL>
0

>  <SCORE.INTRA.REPUL.0>
0

>  <SCORE.INTRA.SOLV>
6.02499

>  <SCORE.INTRA.SOLV.lig_0>
-70.9758

>  <SCORE.INTRA.VDW>
-0.416892

>  <SCORE.INTRA.VDW.0>
-2.70686

>  <SCORE.INTRA.norm>
-0.0170938

>  <SCORE.RESTR>
0.00299527

>  <SCORE.RESTR.CAVITY>
0.00299527

>  <SCORE.RESTR.norm>
0.000110936

>  <SCORE.SYSTEM>
0

>  <SCORE.SYSTEM.CONST>
0

>  <SCORE.SYSTEM.DIHEDRAL>
0

>  <SCORE.SYSTEM.SOLV>
0

>  <SCORE.SYSTEM.norm>
0

>  <SCORE.heavy>
27

>  <SCORE.norm>
-0.476938

>  <RMSD>
2.414

$$$$
ligand
 OpenBabel11021811473D
libRbt.so/2013.1/901 2013/11/27
 27 29  0  0  0  0  0  0  0  0999 V2000
   50.5915   52.3475   27.3181 N   0  0  0  0  0  0  0  0  0  0  0  0
   50.4660   53.7348   27.7593 C   0  0  2  0  0  0  0  0  0  0  0  0
   50.8897   54.7628   26.7081 C   0  0  0  0  0  0  0  0  0  0  0  0
   52.0383   54.8473   26.4245 O   0  0  0  0  0  0  0  0  0  0  0  0
   51.0587   54.0219   29.1548 C   0  0  0  0  0  0  0  0  0  0  0  0
   50.4029   53.3814   30.4096 C   0  0  0  0  0  0  0  0  0  0  0  0
   48.8914   53.6749   30.6038 C   0  0  2  0  0  0  0  0  0  0  0  0
   48.5101   55.0157   30.1601 N   0  0  0  0  0  0  0  0  0  0  0  0
   48.4092   53.3483   32.0509 C   0  0  0  0  0  0  0  0  0  0  0  0
   49.0639   54.1162   33.2484 C   0  0  1  0  0  0  0  0  0  0  0  0
   49.8426   55.3197   32.9794 O   0  0  0  0  0  0  0  0  0  0  0  0
   48.1271   54.5135   34.4234 C   0  0  1  0  0  0  0  0  0  0  0  0
   47.5608   53.4598   35.2135 O   0  0  0  0  0  0  0  0  0  0  0  0
   48.8476   55.6988   35.1376 C   0  0  1  0  0  0  0  0  0  0  0  0
   49.3902   55.4693   36.4158 O   0  0  0  0  0  0  0  0  0  0  0  0
   49.7569   56.2538   34.0367 C   0  0  2  0  0  0  0  0  0  0  0  0
   49.9253   55.2159   25.7861 O   0  0  0  0  0  0  0  0  0  0  0  0
   45.5940   59.2304   32.2209 N   0  0  0  0  0  0  0  0  0  0  0  0
   45.5740   57.8856   32.6082 C   0  0  0  0  0  0  0  0  0  0  0  0
   46.7992   57.2404   33.0747 N   0  0  0  0  0  0  0  0  0  0  0  0
   47.9689   57.9500   33.1357 C   0  0  0  0  0  0  0  0  0  0  0  0
   47.9806   59.3024   32.7422 C   0  0  0  0  0  0  0  0  0  0  0  0
   46.7594   59.9445   32.2767 C   0  0  0  0  0  0  0  0  0  0  0  0
   46.7694   61.3497   31.8684 N   0  0  0  0  0  0  0  0  0  0  0  0
   49.3247   59.8010   32.9031 N   0  0  0  0  0  0  0  0  0  0  0  0
   50.1222   58.7401   33.3931 C   0  0  0  0  0  0  0  0  0  0  0  0
   49.3005   57.5862   33.5456 N   0  0  0  0  0  0  0  0  0  0  0  0
  2  1  1  6  0  0  0
  2  3  1  0  0  0  0
  2  5  1  0  0  0  0
  3  4  1  0  0  0  0
  3 17  1  0  0  0  0
  5  6  1  0  0  0  0
  7  6  1  1  0  0  0
  7  8  1  0  0  0  0
  7  9  1  0  0  0  0
 10  9  1  6  0  0  0
 10 11  1  0  0  0  0
 10 12  1  0  0  0  0
 11 16  1  0  0  0  0
 12 13  1  1  0  0  0
 12 14  1  0  0  0  0
 14 15  1  1  0  0  0
 14 16  1  0  0  0  0
 16 27  1  6  0  0  0
 18 19  2  0  0  0  0
 18 23  1  0  0  0  0
 19 20  1  0  0  0  0
 20 21  2  0  0  0  0
 21 22  1  0  0  0  0
 21 27  1  0  0  0  0
 22 23  2  0  0  0  0
 22 25  1  0  0  0  0
 23 24  1  0  0  0  0
 25 26  2  0  0  0  0
 26 27  1  0  0  0  0
M  END
>  <CHROM.1>
-69.31723011,-66.47186602,-55.96503138,-34.76908728,60.62271572,14.99654061
73.73847920,48.93318649,56.00281281,31.64896566,-0.40346943,-1.16523733,2.14887356

>  <Name>
ligand

>  <RI>
0

>  <Rbt.Current_Directory>
/home/itssahil/PROJECTS/Mol_Feturizer/New_Systems/rnas/3GX2

>  <Rbt.Executable>
rbdock ($Id: //depot/dev/client3/rdock/2013.1/src/exe/rbdock.cxx#4 $)

>  <Rbt.Library>
libRbt.so (2013.1, Build901 2013/11/27)

>  <Rbt.Parameter_File>
/export/apps/rDock/src/rDock_2013.1_src/data/scripts/dock_solv.prm

>  <Rbt.Receptor>
prm/pocket_docking_4.prm

>  <SCORE>
-13.4146

>  <SCORE.INTER>
-13.581

>  <SCORE.INTER.CONST>
1

>  <SCORE.INTER.POLAR>
0

>  <SCORE.INTER.ROT>
7

>  <SCORE.INTER.SOLV>
18.87

>  <SCORE.INTER.VDW>
-23.6107

>  <SCORE.INTER.norm>
-0.502999

>  <SCORE.INTRA>
0.155907

>  <SCORE.INTRA.DIHEDRAL>
-2.4105

>  <SCORE.INTRA.DIHEDRAL.0>
13.9704

>  <SCORE.INTRA.POLAR>
0

>  <SCORE.INTRA.POLAR.0>
0

>  <SCORE.INTRA.REPUL>
0

>  <SCORE.INTRA.REPUL.0>
0

>  <SCORE.INTRA.SOLV>
3.42377

>  <SCORE.INTRA.SOLV.lig_0>
-70.9758

>  <SCORE.INTRA.VDW>
-0.350726

>  <SCORE.INTRA.VDW.0>
-2.70686

>  <SCORE.INTRA.norm>
0.00577434

>  <SCORE.RESTR>
0.0104474

>  <SCORE.RESTR.CAVITY>
0.0104474

>  <SCORE.RESTR.norm>
0.000386942

>  <SCORE.SYSTEM>
0

>  <SCORE.SYSTEM.CONST>
0

>  <SCORE.SYSTEM.DIHEDRAL>
0

>  <SCORE.SYSTEM.SOLV>
0

>  <SCORE.SYSTEM.norm>
0

>  <SCORE.heavy>
27

>  <SCORE.norm>
-0.496838

>  <RMSD>
2.418

$$$$
ligand
 OpenBabel11021811473D
libRbt.so/2013.1/901 2013/11/27
 27 29  0  0  0  0  0  0  0  0999 V2000
   47.8994   59.0056   29.5113 N   0  0  0  0  0  0  0  0  0  0  0  0
   48.1069   58.4046   28.1957 C   0  0  2  0  0  0  0  0  0  0  0  0
   46.8235   58.2339   27.3802 C   0  0  0  0  0  0  0  0  0  0  0  0
   45.8080   58.0194   27.9542 O   0  0  0  0  0  0  0  0  0  0  0  0
   48.9905   57.1395   28.1988 C   0  0  0  0  0  0  0  0  0  0  0  0
   48.9707   56.1972   29.4344 C   0  0  0  0  0  0  0  0  0  0  0  0
   49.7074   54.8424   29.2604 C   0  0  2  0  0  0  0  0  0  0  0  0
   48.9846   53.9080   28.3975 N   0  0  0  0  0  0  0  0  0  0  0  0
   50.1219   54.2175   30.6282 C   0  0  0  0  0  0  0  0  0  0  0  0
   49.0603   54.1632   31.7781 C   0  0  1  0  0  0  0  0  0  0  0  0
   48.8730   55.3340   32.6273 O   0  0  0  0  0  0  0  0  0  0  0  0
   47.6194   53.7346   31.3831 C   0  0  1  0  0  0  0  0  0  0  0  0
   47.4213   52.3879   30.9334 O   0  0  0  0  0  0  0  0  0  0  0  0
   46.7006   54.3058   32.5072 C   0  0  1  0  0  0  0  0  0  0  0  0
   46.1010   53.3954   33.3976 O   0  0  0  0  0  0  0  0  0  0  0  0
   47.5385   55.4547   33.0770 C   0  0  2  0  0  0  0  0  0  0  0  0
   46.7705   58.7935   26.0880 O   0  0  0  0  0  0  0  0  0  0  0  0
   48.5108   60.7572   32.4244 N   0  0  0  0  0  0  0  0  0  0  0  0
   49.4261   59.7619   32.7856 C   0  0  0  0  0  0  0  0  0  0  0  0
   48.9851   58.3750   32.9163 N   0  0  0  0  0  0  0  0  0  0  0  0
   47.6764   58.0456   32.6841 C   0  0  0  0  0  0  0  0  0  0  0  0
   46.7613   59.0536   32.3228 C   0  0  0  0  0  0  0  0  0  0  0  0
   47.2014   60.4357   32.1935 C   0  0  0  0  0  0  0  0  0  0  0  0
   46.2524   61.4842   31.8172 N   0  0  0  0  0  0  0  0  0  0  0  0
   45.4694   58.4379   32.1421 N   0  0  0  0  0  0  0  0  0  0  0  0
   45.6116   57.0540   32.3994 C   0  0  0  0  0  0  0  0  0  0  0  0
   46.9712   56.7911   32.7347 N   0  0  0  0  0  0  0  0  0  0  0  0
  2  1  1  1  0  0  0
  2  3  1  0  0  0  0
  2  5  1  0  0  0  0
  3  4  1  0  0  0  0
  3 17  1  0  0  0  0
  5  6  1  0  0  0  0
  7  6  1  1  0  0  0
  7  8  1  0  0  0  0
  7  9  1  0  0  0  0
 10  9  1  6  0  0  0
 10 11  1  0  0  0  0
 10 12  1  0  0  0  0
 11 16  1  0  0  0  0
 12 13  1  1  0  0  0
 12 14  1  0  0  0  0
 14 15  1  1  0  0  0
 14 16  1  0  0  0  0
 16 27  1  6  0  0  0
 18 19  2  0  0  0  0
 18 23  1  0  0  0  0
 19 20  1  0  0  0  0
 20 21  2  0  0  0  0
 21 22  1  0  0  0  0
 21 27  1  0  0  0  0
 22 23  2  0  0  0  0
 22 25  1  0  0  0  0
 23 24  1  0  0  0  0
 25 26  2  0  0  0  0
 26 27  1  0  0  0  0
M  END
>  <CHROM.1>
-32.16949915,31.77072276,170.55763840,-72.87248829,47.06346551,-84.19650325
-33.88315565,47.70420635,56.89006053,30.87873428,-2.45280925,-1.38769050
2.09963298

>  <Name>
ligand

>  <RI>
0

>  <Rbt.Current_Directory>
/home/itssahil/PROJECTS/Mol_Feturizer/New_Systems/rnas/3GX2

>  <Rbt.Executable>
rbdock ($Id: //depot/dev/client3/rdock/2013.1/src/exe/rbdock.cxx#4 $)

>  <Rbt.Library>
libRbt.so (2013.1, Build901 2013/11/27)

>  <Rbt.Parameter_File>
/export/apps/rDock/src/rDock_2013.1_src/data/scripts/dock_solv.prm

>  <Rbt.Receptor>
prm/pocket_docking_2.prm

>  <SCORE>
-8.20845

>  <SCORE.INTER>
-7.87649

>  <SCORE.INTER.CONST>
1

>  <SCORE.INTER.POLAR>
0

>  <SCORE.INTER.ROT>
7

>  <SCORE.INTER.SOLV>
21.4673

>  <SCORE.INTER.VDW>
-20.6734

>  <SCORE.INTER.norm>
-0.291722

>  <SCORE.INTRA>
-0.36601

>  <SCORE.INTRA.DIHEDRAL>
-3.75194

>  <SCORE.INTRA.DIHEDRAL.0>
13.9704

>  <SCORE.INTRA.POLAR>
0

>  <SCORE.INTRA.POLAR.0>
0

>  <SCORE.INTRA.REPUL>
0

>  <SCORE.INTRA.REPUL.0>
0

>  <SCORE.INTRA.SOLV>
5.50555

>  <SCORE.INTRA.SOLV.lig_0>
-70.9758

>  <SCORE.INTRA.VDW>
-1.24281

>  <SCORE.INTRA.VDW.0>
-2.70686

>  <SCORE.INTRA.norm>
-0.0135559

>  <SCORE.RESTR>
0.0340532

>  <SCORE.RESTR.CAVITY>
0.0340532

>  <SCORE.RESTR.norm>
0.00126123

>  <SCORE.SYSTEM>
0

>  <SCORE.SYSTEM.CONST>
0

>  <SCORE.SYSTEM.DIHEDRAL>
0

>  <SCORE.SYSTEM.SOLV>
0

>  <SCORE.SYSTEM.norm>
0

>  <SCORE.heavy>
27

>  <SCORE.norm>
-0.304017

>  <RMSD>
2.430

$$$$
ligand
 OpenBabel11021811473D
libRbt.so/2013.1/901 2013/11/27
 27 29  0  0  0  0  0  0  0  0999 V2000
   45.3107   52.6631   27.9113 N   0  0  0  0  0  0  0  0  0  0  0  0
   46.4874   53.5095   28.0959 C   0  0  2  0  0  0  0  0  0  0  0  0
   47.7204   53.0382   27.3222 C   0  0  0  0  0  0  0  0  0  0  0  0
   48.0541   51.9040   27.4180 O   0  0  0  0  0  0  0  0  0  0  0  0
   46.7987   53.8665   29.5645 C   0  0  0  0  0  0  0  0  0  0  0  0
   47.7630   55.0447   29.8761 C   0  0  0  0  0  0  0  0  0  0  0  0
   49.2642   54.6715   30.0017 C   0  0  2  0  0  0  0  0  0  0  0  0
   49.8320   54.1672   28.7514 N   0  0  0  0  0  0  0  0  0  0  0  0
   49.5387   53.7369   31.2201 C   0  0  0  0  0  0  0  0  0  0  0  0
   49.2905   54.2953   32.6619 C   0  0  1  0  0  0  0  0  0  0  0  0
   49.9092   55.5576   33.0506 O   0  0  0  0  0  0  0  0  0  0  0  0
   47.8104   54.4313   33.1165 C   0  0  1  0  0  0  0  0  0  0  0  0
   47.0502   53.2282   33.2896 O   0  0  0  0  0  0  0  0  0  0  0  0
   47.8302   55.4916   34.2608 C   0  0  1  0  0  0  0  0  0  0  0  0
   47.5837   55.0514   35.5747 O   0  0  0  0  0  0  0  0  0  0  0  0
   49.1140   56.2760   33.9721 C   0  0  2  0  0  0  0  0  0  0  0  0
   48.1229   53.7733   26.1893 O   0  0  0  0  0  0  0  0  0  0  0  0
   45.4176   59.7083   31.9615 N   0  0  0  0  0  0  0  0  0  0  0  0
   45.2304   58.3674   32.3158 C   0  0  0  0  0  0  0  0  0  0  0  0
   46.3471   57.5878   32.8451 N   0  0  0  0  0  0  0  0  0  0  0  0
   47.5784   58.1674   32.9974 C   0  0  0  0  0  0  0  0  0  0  0  0
   47.7586   59.5170   32.6366 C   0  0  0  0  0  0  0  0  0  0  0  0
   46.6454   60.2931   32.1084 C   0  0  0  0  0  0  0  0  0  0  0  0
   46.8305   61.6956   31.7339 N   0  0  0  0  0  0  0  0  0  0  0  0
   49.1341   59.8668   32.8948 N   0  0  0  0  0  0  0  0  0  0  0  0
   49.7811   58.7192   33.4106 C   0  0  0  0  0  0  0  0  0  0  0  0
   48.8341   57.6572   33.4834 N   0  0  0  0  0  0  0  0  0  0  0  0
  2  1  1  1  0  0  0
  2  3  1  0  0  0  0
  2  5  1  0  0  0  0
  3  4  1  0  0  0  0
  3 17  1  0  0  0  0
  5  6  1  0  0  0  0
  7  6  1  6  0  0  0
  7  8  1  0  0  0  0
  7  9  1  0  0  0  0
 10  9  1  6  0  0  0
 10 11  1  0  0  0  0
 10 12  1  0  0  0  0
 11 16  1  0  0  0  0
 12 13  1  1  0  0  0
 12 14  1  0  0  0  0
 14 15  1  1  0  0  0
 14 16  1  0  0  0  0
 16 27  1  6  0  0  0
 18 19  2  0  0  0  0
 18 23  1  0  0  0  0
 19 20  1  0  0  0  0
 20 21  2  0  0  0  0
 21 22  1  0  0  0  0
 21 27  1  0  0  0  0
 22 23  2  0  0  0  0
 22 25  1  0  0  0  0
 23 24  1  0  0  0  0
 25 26  2  0  0  0  0
 26 27  1  0  0  0  0
M  END
>  <CHROM.1>
-50.23291047,-163.57875814,-90.23819786,64.22651471,-64.91983971,-52.40885746
108.19089216,47.82880255,55.90061329,31.39068031,1.53765982,1.19064038,-2.39538219

>  <Name>
ligand

>  <RI>
0

>  <Rbt.Current_Directory>
/home/itssahil/PROJECTS/Mol_Feturizer/New_Systems/rnas/3GX2

>  <Rbt.Executable>
rbdock ($Id: //depot/dev/client3/rdock/2013.1/src/exe/rbdock.cxx#4 $)

>  <Rbt.Library>
libRbt.so (2013.1, Build901 2013/11/27)

>  <Rbt.Parameter_File>
/export/apps/rDock/src/rDock_2013.1_src/data/scripts/dock_solv.prm

>  <Rbt.Receptor>
prm/pocket_docking_4.prm

>  <SCORE>
-9.45672

>  <SCORE.INTER>
-8.36627

>  <SCORE.INTER.CONST>
1

>  <SCORE.INTER.POLAR>
0

>  <SCORE.INTER.ROT>
7

>  <SCORE.INTER.SOLV>
19.2349

>  <SCORE.INTER.VDW>
-20.2558

>  <SCORE.INTER.norm>
-0.309862

>  <SCORE.INTRA>
-1.09536

>  <SCORE.INTRA.DIHEDRAL>
-5.32891

>  <SCORE.INTRA.DIHEDRAL.0>
13.9704

>  <SCORE.INTRA.POLAR>
0

>  <SCORE.INTRA.POLAR.0>
0

>  <SCORE.INTRA.REPUL>
0

>  <SCORE.INTRA.REPUL.0>
0

>  <SCORE.INTRA.SOLV>
3.79843

>  <SCORE.INTRA.SOLV.lig_0>
-70.9758

>  <SCORE.INTRA.VDW>
-0.330121

>  <SCORE.INTRA.VDW.0>
-2.70686

>  <SCORE.INTRA.norm>
-0.0405689

>  <SCORE.RESTR>
0.00491344

>  <SCORE.RESTR.CAVITY>
0.00491344

>  <SCORE.RESTR.norm>
0.000181979

>  <SCORE.SYSTEM>
0

>  <SCORE.SYSTEM.CONST>
0

>  <SCORE.SYSTEM.DIHEDRAL>
0

>  <SCORE.SYSTEM.SOLV>
0

>  <SCORE.SYSTEM.norm>
0

>  <SCORE.heavy>
27

>  <SCORE.norm>
-0.350249

>  <RMSD>
2.433

$$$$
ligand
 OpenBabel11021811473D
libRbt.so/2013.1/901 2013/11/27
 27 29  0  0  0  0  0  0  0  0999 V2000
   45.2139   52.2984   27.2811 N   0  0  0  0  0  0  0  0  0  0  0  0
   46.0533   53.4402   26.9250 C   0  0  2  0  0  0  0  0  0  0  0  0
   47.1382   53.1177   25.8953 C   0  0  0  0  0  0  0  0  0  0  0  0
   47.3223   51.9844   25.5975 O   0  0  0  0  0  0  0  0  0  0  0  0
   46.5862   54.2466   28.1279 C   0  0  0  0  0  0  0  0  0  0  0  0
   47.5984   53.5840   29.1034 C   0  0  0  0  0  0  0  0  0  0  0  0
   48.0547   54.4615   30.2993 C   0  0  2  0  0  0  0  0  0  0  0  0
   48.7204   55.6946   29.8794 N   0  0  0  0  0  0  0  0  0  0  0  0
   48.8759   53.6483   31.3469 C   0  0  0  0  0  0  0  0  0  0  0  0
   49.3048   54.3581   32.6753 C   0  0  1  0  0  0  0  0  0  0  0  0
   50.0530   55.6079   32.6027 O   0  0  0  0  0  0  0  0  0  0  0  0
   48.1843   54.6353   33.7162 C   0  0  1  0  0  0  0  0  0  0  0  0
   47.5606   53.5077   34.3443 O   0  0  0  0  0  0  0  0  0  0  0  0
   48.7293   55.7971   34.6035 C   0  0  1  0  0  0  0  0  0  0  0  0
   49.0860   55.5027   35.9328 O   0  0  0  0  0  0  0  0  0  0  0  0
   49.7634   56.4630   33.6903 C   0  0  2  0  0  0  0  0  0  0  0  0
   47.5352   54.1305   24.9996 O   0  0  0  0  0  0  0  0  0  0  0  0
   45.5828   59.5710   32.1573 N   0  0  0  0  0  0  0  0  0  0  0  0
   45.5446   58.2316   32.5617 C   0  0  0  0  0  0  0  0  0  0  0  0
   46.7781   57.5470   32.9423 N   0  0  0  0  0  0  0  0  0  0  0  0
   47.9734   58.2141   32.9060 C   0  0  0  0  0  0  0  0  0  0  0  0
   48.0031   59.5614   32.4961 C   0  0  0  0  0  0  0  0  0  0  0  0
   46.7736   60.2429   32.1162 C   0  0  0  0  0  0  0  0  0  0  0  0
   46.8024   61.6428   31.6909 N   0  0  0  0  0  0  0  0  0  0  0  0
   49.3723   60.0124   32.5488 N   0  0  0  0  0  0  0  0  0  0  0  0
   50.1667   58.9281   32.9902 C   0  0  0  0  0  0  0  0  0  0  0  0
   49.3185   57.8063   33.2186 N   0  0  0  0  0  0  0  0  0  0  0  0
  2  1  1  1  0  0  0
  2  3  1  0  0  0  0
  2  5  1  0  0  0  0
  3  4  1  0  0  0  0
  3 17  1  0  0  0  0
  5  6  1  0  0  0  0
  7  6  1  6  0  0  0
  7  8  1  0  0  0  0
  7  9  1  0  0  0  0
 10  9  1  6  0  0  0
 10 11  1  0  0  0  0
 10 12  1  0  0  0  0
 11 16  1  0  0  0  0
 12 13  1  1  0  0  0
 12 14  1  0  0  0  0
 14 15  1  1  0  0  0
 14 16  1  0  0  0  0
 16 27  1  6  0  0  0
 18 19  2  0  0  0  0
 18 23  1  0  0  0  0
 19 20  1  0  0  0  0
 20 21  2  0  0  0  0
 21 22  1  0  0  0  0
 21 27  1  0  0  0  0
 22 23  2  0  0  0  0
 22 25  1  0  0  0  0
 23 24  1  0  0  0  0
 25 26  2  0  0  0  0
 26 27  1  0  0  0  0
M  END
>  <CHROM.1>
-8.92412868,66.41821305,-178.75460094,-60.22351278,-174.77711032,-54.78482999
88.25500585,47.86601950,55.97853314,31.15913348,1.99884122,1.18715539,-2.62508713

>  <Name>
ligand

>  <RI>
0

>  <Rbt.Current_Directory>
/home/itssahil/PROJECTS/Mol_Feturizer/New_Systems/rnas/3GX2

>  <Rbt.Executable>
rbdock ($Id: //depot/dev/client3/rdock/2013.1/src/exe/rbdock.cxx#4 $)

>  <Rbt.Library>
libRbt.so (2013.1, Build901 2013/11/27)

>  <Rbt.Parameter_File>
/export/apps/rDock/src/rDock_2013.1_src/data/scripts/dock_solv.prm

>  <Rbt.Receptor>
prm/pocket_docking_5.prm

>  <SCORE>
-13.4426

>  <SCORE.INTER>
-9.70099

>  <SCORE.INTER.CONST>
1

>  <SCORE.INTER.POLAR>
0

>  <SCORE.INTER.ROT>
7

>  <SCORE.INTER.SOLV>
20.5728

>  <SCORE.INTER.VDW>
-21.5916

>  <SCORE.INTER.norm>
-0.359296

>  <SCORE.INTRA>
-3.74165

>  <SCORE.INTRA.DIHEDRAL>
-8.97503

>  <SCORE.INTRA.DIHEDRAL.0>
13.9704

>  <SCORE.INTRA.POLAR>
0

>  <SCORE.INTRA.POLAR.0>
0

>  <SCORE.INTRA.REPUL>
0

>  <SCORE.INTRA.REPUL.0>
0

>  <SCORE.INTRA.SOLV>
2.28997

>  <SCORE.INTRA.SOLV.lig_0>
-70.9758

>  <SCORE.INTRA.VDW>
-0.399122

>  <SCORE.INTRA.VDW.0>
-2.70686

>  <SCORE.INTRA.norm>
-0.13858

>  <SCORE.RESTR>
0

>  <SCORE.RESTR.CAVITY>
0

>  <SCORE.RESTR.norm>
0

>  <SCORE.SYSTEM>
0

>  <SCORE.SYSTEM.CONST>
0

>  <SCORE.SYSTEM.DIHEDRAL>
0

>  <SCORE.SYSTEM.SOLV>
0

>  <SCORE.SYSTEM.norm>
0

>  <SCORE.heavy>
27

>  <SCORE.norm>
-0.497876

>  <RMSD>
2.555

$$$$
ligand
 OpenBabel11021811473D
libRbt.so/2013.1/901 2013/11/27
 27 29  0  0  0  0  0  0  0  0999 V2000
   45.0569   52.3977   27.3121 N   0  0  0  0  0  0  0  0  0  0  0  0
   46.0128   53.4449   26.9590 C   0  0  2  0  0  0  0  0  0  0  0  0
   47.0950   52.9936   25.9759 C   0  0  0  0  0  0  0  0  0  0  0  0
   46.8540   52.1001   25.2340 O   0  0  0  0  0  0  0  0  0  0  0  0
   46.5807   54.2290   28.1606 C   0  0  0  0  0  0  0  0  0  0  0  0
   47.4348   53.4840   29.2239 C   0  0  0  0  0  0  0  0  0  0  0  0
   47.9407   54.3494   30.4085 C   0  0  2  0  0  0  0  0  0  0  0  0
   48.6912   55.5274   29.9734 N   0  0  0  0  0  0  0  0  0  0  0  0
   48.6976   53.5011   31.4765 C   0  0  0  0  0  0  0  0  0  0  0  0
   49.1473   54.1988   32.8045 C   0  0  1  0  0  0  0  0  0  0  0  0
   49.9110   55.4391   32.7313 O   0  0  0  0  0  0  0  0  0  0  0  0
   48.0395   54.4855   33.8564 C   0  0  1  0  0  0  0  0  0  0  0  0
   47.4065   53.3630   34.4846 O   0  0  0  0  0  0  0  0  0  0  0  0
   48.6072   55.6358   34.7444 C   0  0  1  0  0  0  0  0  0  0  0  0
   48.9715   55.3303   36.0691 O   0  0  0  0  0  0  0  0  0  0  0  0
   49.6420   56.2926   33.8254 C   0  0  2  0  0  0  0  0  0  0  0  0
   48.1149   53.9048   25.6363 O   0  0  0  0  0  0  0  0  0  0  0  0
   45.5183   59.4091   32.1612 N   0  0  0  0  0  0  0  0  0  0  0  0
   45.4705   58.0602   32.5315 C   0  0  0  0  0  0  0  0  0  0  0  0
   46.6889   57.3747   32.9565 N   0  0  0  0  0  0  0  0  0  0  0  0
   47.8794   58.0503   32.9950 C   0  0  0  0  0  0  0  0  0  0  0  0
   47.9190   59.4071   32.6188 C   0  0  0  0  0  0  0  0  0  0  0  0
   46.7045   60.0895   32.1947 C   0  0  0  0  0  0  0  0  0  0  0  0
   46.7435   61.4993   31.8044 N   0  0  0  0  0  0  0  0  0  0  0  0
   49.2804   59.8656   32.7497 N   0  0  0  0  0  0  0  0  0  0  0  0
   50.0603   58.7763   33.2043 C   0  0  0  0  0  0  0  0  0  0  0  0
   49.2106   57.6438   33.3640 N   0  0  0  0  0  0  0  0  0  0  0  0
  2  1  1  1  0  0  0
  2  3  1  0  0  0  0
  2  5  1  0  0  0  0
  3  4  1  0  0  0  0
  3 17  1  0  0  0  0
  5  6  1  0  0  0  0
  7  6  1  6  0  0  0
  7  8  1  0  0  0  0
  7  9  1  0  0  0  0
 10  9  1  6  0  0  0
 10 11  1  0  0  0  0
 10 12  1  0  0  0  0
 11 16  1  0  0  0  0
 12 13  1  1  0  0  0
 12 14  1  0  0  0  0
 14 15  1  1  0  0  0
 14 16  1  0  0  0  0
 16 27  1  6  0  0  0
 18 19  2  0  0  0  0
 18 23  1  0  0  0  0
 19 20  1  0  0  0  0
 20 21  2  0  0  0  0
 21 22  1  0  0  0  0
 21 27  1  0  0  0  0
 22 23  2  0  0  0  0
 22 25  1  0  0  0  0
 23 24  1  0  0  0  0
 25 26  2  0  0  0  0
 26 27  1  0  0  0  0
M  END
>  <CHROM.1>
26.52980563,63.42448010,-178.93635418,-54.94874957,-173.97311404,-51.74423733
84.57400999,47.77752332,55.85431047,31.26410551,2.01320648,1.20043126,-2.62131128

>  <Name>
ligand

>  <RI>
0

>  <Rbt.Current_Directory>
/home/itssahil/PROJECTS/Mol_Feturizer/New_Systems/rnas/3GX2

>  <Rbt.Executable>
rbdock ($Id: //depot/dev/client3/rdock/2013.1/src/exe/rbdock.cxx#4 $)

>  <Rbt.Library>
libRbt.so (2013.1, Build901 2013/11/27)

>  <Rbt.Parameter_File>
/export/apps/rDock/src/rDock_2013.1_src/data/scripts/dock_solv.prm

>  <Rbt.Receptor>
prm/pocket_docking_5.prm

>  <SCORE>
-13.3496

>  <SCORE.INTER>
-9.9099

>  <SCORE.INTER.CONST>
1

>  <SCORE.INTER.POLAR>
0

>  <SCORE.INTER.ROT>
7

>  <SCORE.INTER.SOLV>
19.6567

>  <SCORE.INTER.VDW>
-21.4255

>  <SCORE.INTER.norm>
-0.367033

>  <SCORE.INTRA>
-3.43965

>  <SCORE.INTRA.DIHEDRAL>
-8.53644

>  <SCORE.INTRA.DIHEDRAL.0>
13.9704

>  <SCORE.INTRA.POLAR>
0

>  <SCORE.INTRA.POLAR.0>
0

>  <SCORE.INTRA.REPUL>
0

>  <SCORE.INTRA.REPUL.0>
0

>  <SCORE.INTRA.SOLV>
2.27893

>  <SCORE.INTRA.SOLV.lig_0>
-70.9758

>  <SCORE.INTRA.VDW>
-0.3109

>  <SCORE.INTRA.VDW.0>
-2.70686

>  <SCORE.INTRA.norm>
-0.127395

>  <SCORE.RESTR>
0

>  <SCORE.RESTR.CAVITY>
0

>  <SCORE.RESTR.norm>
0

>  <SCORE.SYSTEM>
0

>  <SCORE.SYSTEM.CONST>
0

>  <SCORE.SYSTEM.DIHEDRAL>
0

>  <SCORE.SYSTEM.SOLV>
0

>  <SCORE.SYSTEM.norm>
0

>  <SCORE.heavy>
27

>  <SCORE.norm>
-0.494428

>  <RMSD>
2.575

$$$$
ligand
 OpenBabel11021811473D
libRbt.so/2013.1/901 2013/11/27
 27 29  0  0  0  0  0  0  0  0999 V2000
   48.6137   54.1435   26.5727 N   0  0  0  0  0  0  0  0  0  0  0  0
   48.6270   55.5738   26.8715 C   0  0  2  0  0  0  0  0  0  0  0  0
   48.0427   56.4471   25.7592 C   0  0  0  0  0  0  0  0  0  0  0  0
   47.9418   55.9899   24.6694 O   0  0  0  0  0  0  0  0  0  0  0  0
   49.9715   56.1057   27.4105 C   0  0  0  0  0  0  0  0  0  0  0  0
   50.5172   55.5706   28.7636 C   0  0  0  0  0  0  0  0  0  0  0  0
   49.5589   55.7048   29.9769 C   0  0  2  0  0  0  0  0  0  0  0  0
   49.2118   57.0937   30.2774 N   0  0  0  0  0  0  0  0  0  0  0  0
   50.0720   54.9184   31.2225 C   0  0  0  0  0  0  0  0  0  0  0  0
   49.1946   54.9169   32.5196 C   0  0  1  0  0  0  0  0  0  0  0  0
   48.8751   56.1867   33.1620 O   0  0  0  0  0  0  0  0  0  0  0  0
   47.8362   54.1649   32.4470 C   0  0  1  0  0  0  0  0  0  0  0  0
   47.8675   52.7407   32.2864 O   0  0  0  0  0  0  0  0  0  0  0  0
   46.9648   54.7849   33.5829 C   0  0  1  0  0  0  0  0  0  0  0  0
   46.6812   53.9886   34.7083 O   0  0  0  0  0  0  0  0  0  0  0  0
   47.6103   56.1583   33.7923 C   0  0  2  0  0  0  0  0  0  0  0  0
   47.2212   57.5334   26.1209 O   0  0  0  0  0  0  0  0  0  0  0  0
   47.4014   61.1280   31.6138 N   0  0  0  0  0  0  0  0  0  0  0  0
   48.5441   60.3846   31.9306 C   0  0  0  0  0  0  0  0  0  0  0  0
   48.4112   59.0527   32.5166 N   0  0  0  0  0  0  0  0  0  0  0  0
   47.1691   58.5282   32.7555 C   0  0  0  0  0  0  0  0  0  0  0  0
   46.0242   59.2837   32.4355 C   0  0  0  0  0  0  0  0  0  0  0  0
   46.1574   60.6113   31.8521 C   0  0  0  0  0  0  0  0  0  0  0  0
   44.9692   61.3974   31.5181 N   0  0  0  0  0  0  0  0  0  0  0  0
   44.8632   58.5032   32.7874 N   0  0  0  0  0  0  0  0  0  0  0  0
   45.3161   57.2747   33.3235 C   0  0  0  0  0  0  0  0  0  0  0  0
   46.7408   57.2703   33.3104 N   0  0  0  0  0  0  0  0  0  0  0  0
  2  1  1  6  0  0  0
  2  3  1  0  0  0  0
  2  5  1  0  0  0  0
  3  4  1  0  0  0  0
  3 17  1  0  0  0  0
  5  6  1  0  0  0  0
  7  6  1  6  0  0  0
  7  8  1  0  0  0  0
  7  9  1  0  0  0  0
 10  9  1  6  0  0  0
 10 11  1  0  0  0  0
 10 12  1  0  0  0  0
 11 16  1  0  0  0  0
 12 13  1  1  0  0  0
 12 14  1  0  0  0  0
 14 15  1  1  0  0  0
 14 16  1  0  0  0  0
 16 27  1  6  0  0  0
 18 19  2  0  0  0  0
 18 23  1  0  0  0  0
 19 20  1  0  0  0  0
 20 21  2  0  0  0  0
 21 22  1  0  0  0  0
 21 27  1  0  0  0  0
 22 23  2  0  0  0  0
 22 25  1  0  0  0  0
 23 24  1  0  0  0  0
 25 26  2  0  0  0  0
 26 27  1  0  0  0  0
M  END
>  <CHROM.1>
-18.19510117,-62.90206684,-55.13804477,-61.15639247,-178.17123879,-59.30960956
-25.05339868,47.81329933,56.79047267,30.83803971,-0.72279965,-1.18323793
2.06781840

>  <Name>
ligand

>  <RI>
0

>  <Rbt.Current_Directory>
/home/itssahil/PROJECTS/Mol_Feturizer/New_Systems/rnas/3GX2

>  <Rbt.Executable>
rbdock ($Id: //depot/dev/client3/rdock/2013.1/src/exe/rbdock.cxx#4 $)

>  <Rbt.Library>
libRbt.so (2013.1, Build901 2013/11/27)

>  <Rbt.Parameter_File>
/export/apps/rDock/src/rDock_2013.1_src/data/scripts/dock_solv.prm

>  <Rbt.Receptor>
prm/pocket_docking_3.prm

>  <SCORE>
-12.0253

>  <SCORE.INTER>
-9.10823

>  <SCORE.INTER.CONST>
1

>  <SCORE.INTER.POLAR>
0

>  <SCORE.INTER.ROT>
7

>  <SCORE.INTER.SOLV>
20.9638

>  <SCORE.INTER.VDW>
-21.3267

>  <SCORE.INTER.norm>
-0.337342

>  <SCORE.INTRA>
-2.91709

>  <SCORE.INTRA.DIHEDRAL>
-9.27838

>  <SCORE.INTRA.DIHEDRAL.0>
13.9704

>  <SCORE.INTRA.POLAR>
0

>  <SCORE.INTRA.POLAR.0>
0

>  <SCORE.INTRA.REPUL>
0

>  <SCORE.INTRA.REPUL.0>
0

>  <SCORE.INTRA.SOLV>
4.09678

>  <SCORE.INTRA.SOLV.lig_0>
-70.9758

>  <SCORE.INTRA.VDW>
-0.326286

>  <SCORE.INTRA.VDW.0>
-2.70686

>  <SCORE.INTRA.norm>
-0.10804

>  <SCORE.RESTR>
0

>  <SCORE.RESTR.CAVITY>
0

>  <SCORE.RESTR.norm>
0

>  <SCORE.SYSTEM>
0

>  <SCORE.SYSTEM.CONST>
0

>  <SCORE.SYSTEM.DIHEDRAL>
0

>  <SCORE.SYSTEM.SOLV>
0

>  <SCORE.SYSTEM.norm>
0

>  <SCORE.heavy>
27

>  <SCORE.norm>
-0.445382

>  <RMSD>
2.597

$$$$
ligand
 OpenBabel11021811473D
libRbt.so/2013.1/901 2013/11/27
 27 29  0  0  0  0  0  0  0  0999 V2000
   49.8143   54.2140   29.0778 N   0  0  0  0  0  0  0  0  0  0  0  0
   49.0670   53.0273   28.6675 C   0  0  2  0  0  0  0  0  0  0  0  0
   49.5756   52.3883   27.3736 C   0  0  0  0  0  0  0  0  0  0  0  0
   49.0641   52.6939   26.3479 O   0  0  0  0  0  0  0  0  0  0  0  0
   47.5330   53.1922   28.6946 C   0  0  0  0  0  0  0  0  0  0  0  0
   46.7828   53.1367   30.0545 C   0  0  0  0  0  0  0  0  0  0  0  0
   47.3419   54.0590   31.1704 C   0  0  2  0  0  0  0  0  0  0  0  0
   47.6566   55.4052   30.6920 N   0  0  0  0  0  0  0  0  0  0  0  0
   48.5194   53.3947   31.9486 C   0  0  0  0  0  0  0  0  0  0  0  0
   49.1264   54.1532   33.1768 C   0  0  1  0  0  0  0  0  0  0  0  0
   49.8920   55.3737   32.9499 O   0  0  0  0  0  0  0  0  0  0  0  0
   48.1497   54.5155   34.3304 C   0  0  1  0  0  0  0  0  0  0  0  0
   47.5789   53.4397   35.0867 O   0  0  0  0  0  0  0  0  0  0  0  0
   48.8293   55.7005   35.0842 C   0  0  1  0  0  0  0  0  0  0  0  0
   49.3388   55.4587   36.3737 O   0  0  0  0  0  0  0  0  0  0  0  0
   49.7603   56.2886   34.0192 C   0  0  2  0  0  0  0  0  0  0  0  0
   50.8836   51.8647   27.3531 O   0  0  0  0  0  0  0  0  0  0  0  0
   45.5953   59.2325   32.1556 N   0  0  0  0  0  0  0  0  0  0  0  0
   45.5860   57.8824   32.5241 C   0  0  0  0  0  0  0  0  0  0  0  0
   46.8100   57.2477   33.0078 N   0  0  0  0  0  0  0  0  0  0  0  0
   47.9680   57.9723   33.1034 C   0  0  0  0  0  0  0  0  0  0  0  0
   47.9691   59.3301   32.7287 C   0  0  0  0  0  0  0  0  0  0  0  0
   46.7490   59.9618   32.2460 C   0  0  0  0  0  0  0  0  0  0  0  0
   46.7479   61.3725   31.8571 N   0  0  0  0  0  0  0  0  0  0  0  0
   49.3023   59.8449   32.9250 N   0  0  0  0  0  0  0  0  0  0  0  0
   50.1041   58.7884   33.4174 C   0  0  0  0  0  0  0  0  0  0  0  0
   49.2957   57.6213   33.5366 N   0  0  0  0  0  0  0  0  0  0  0  0
  2  1  1  6  0  0  0
  2  3  1  0  0  0  0
  2  5  1  0  0  0  0
  3  4  1  0  0  0  0
  3 17  1  0  0  0  0
  5  6  1  0  0  0  0
  7  6  1  6  0  0  0
  7  8  1  0  0  0  0
  7  9  1  0  0  0  0
 10  9  1  6  0  0  0
 10 11  1  0  0  0  0
 10 12  1  0  0  0  0
 11 16  1  0  0  0  0
 12 13  1  1  0  0  0
 12 14  1  0  0  0  0
 14 15  1  1  0  0  0
 14 16  1  0  0  0  0
 16 27  1  6  0  0  0
 18 19  2  0  0  0  0
 18 23  1  0  0  0  0
 19 20  1  0  0  0  0
 20 21  2  0  0  0  0
 21 22  1  0  0  0  0
 21 27  1  0  0  0  0
 22 23  2  0  0  0  0
 22 25  1  0  0  0  0
 23 24  1  0  0  0  0
 25 26  2  0  0  0  0
 26 27  1  0  0  0  0
M  END
>  <CHROM.1>
-94.20568001,-77.25851305,50.85281655,44.50612780,-175.57874412,-69.38785210
74.22370270,48.37042465,55.72878885,31.81388460,1.02117336,1.26405105,-1.87451244

>  <Name>
ligand

>  <RI>
0

>  <Rbt.Current_Directory>
/home/itssahil/PROJECTS/Mol_Feturizer/New_Systems/rnas/3GX2

>  <Rbt.Executable>
rbdock ($Id: //depot/dev/client3/rdock/2013.1/src/exe/rbdock.cxx#4 $)

>  <Rbt.Library>
libRbt.so (2013.1, Build901 2013/11/27)

>  <Rbt.Parameter_File>
/export/apps/rDock/src/rDock_2013.1_src/data/scripts/dock_solv.prm

>  <Rbt.Receptor>
prm/pocket_docking_4.prm

>  <SCORE>
-11.8381

>  <SCORE.INTER>
-11.663

>  <SCORE.INTER.CONST>
1

>  <SCORE.INTER.POLAR>
0

>  <SCORE.INTER.ROT>
7

>  <SCORE.INTER.SOLV>
16.855

>  <SCORE.INTER.VDW>
-21.6603

>  <SCORE.INTER.norm>
-0.431963

>  <SCORE.INTRA>
-0.178924

>  <SCORE.INTRA.DIHEDRAL>
-6.39808

>  <SCORE.INTRA.DIHEDRAL.0>
13.9704

>  <SCORE.INTRA.POLAR>
0

>  <SCORE.INTRA.POLAR.0>
0

>  <SCORE.INTRA.REPUL>
0.00623264

>  <SCORE.INTRA.REPUL.0>
0

>  <SCORE.INTRA.SOLV>
7.63478

>  <SCORE.INTRA.SOLV.lig_0>
-70.9758

>  <SCORE.INTRA.VDW>
-0.828434

>  <SCORE.INTRA.VDW.0>
-2.70686

>  <SCORE.INTRA.norm>
-0.00662681

>  <SCORE.RESTR>
0.00381659

>  <SCORE.RESTR.CAVITY>
0.00381659

>  <SCORE.RESTR.norm>
0.000141355

>  <SCORE.SYSTEM>
0

>  <SCORE.SYSTEM.CONST>
0

>  <SCORE.SYSTEM.DIHEDRAL>
0

>  <SCORE.SYSTEM.SOLV>
0

>  <SCORE.SYSTEM.norm>
0

>  <SCORE.heavy>
27

>  <SCORE.norm>
-0.438448

>  <RMSD>
2.641

$$$$
ligand
 OpenBabel11021811483D
libRbt.so/2013.1/901 2013/11/27
 27 29  0  0  0  0  0  0  0  0999 V2000
   49.6435   52.0804   26.3849 N   0  0  0  0  0  0  0  0  0  0  0  0
   48.3120   51.9553   26.9735 C   0  0  2  0  0  0  0  0  0  0  0  0
   47.1712   52.2746   26.0050 C   0  0  0  0  0  0  0  0  0  0  0  0
   46.0764   51.9052   26.2728 O   0  0  0  0  0  0  0  0  0  0  0  0
   48.1477   52.6439   28.3446 C   0  0  0  0  0  0  0  0  0  0  0  0
   48.3951   54.1734   28.4656 C   0  0  0  0  0  0  0  0  0  0  0  0
   48.3010   54.7598   29.8994 C   0  0  2  0  0  0  0  0  0  0  0  0
   48.3954   56.2194   29.9250 N   0  0  0  0  0  0  0  0  0  0  0  0
   49.2893   54.0646   30.8859 C   0  0  0  0  0  0  0  0  0  0  0  0
   49.5144   54.7077   32.2960 C   0  0  1  0  0  0  0  0  0  0  0  0
   50.1425   56.0210   32.3851 O   0  0  0  0  0  0  0  0  0  0  0  0
   48.2750   54.8050   33.2288 C   0  0  1  0  0  0  0  0  0  0  0  0
   47.7035   53.5822   33.7121 O   0  0  0  0  0  0  0  0  0  0  0  0
   48.6152   55.9404   34.2432 C   0  0  1  0  0  0  0  0  0  0  0  0
   48.8654   55.5796   35.5804 O   0  0  0  0  0  0  0  0  0  0  0  0
   49.6658   56.7625   33.4900 C   0  0  2  0  0  0  0  0  0  0  0  0
   47.3265   53.3604   25.1203 O   0  0  0  0  0  0  0  0  0  0  0  0
   45.2952   59.6972   32.1584 N   0  0  0  0  0  0  0  0  0  0  0  0
   45.3338   58.3491   32.5325 C   0  0  0  0  0  0  0  0  0  0  0  0
   46.6099   57.7168   32.8592 N   0  0  0  0  0  0  0  0  0  0  0  0
   47.7703   58.4417   32.8018 C   0  0  0  0  0  0  0  0  0  0  0  0
   47.7228   59.7974   32.4225 C   0  0  0  0  0  0  0  0  0  0  0  0
   46.4507   60.4267   32.0964 C   0  0  0  0  0  0  0  0  0  0  0  0
   46.3993   61.8352   31.7031 N   0  0  0  0  0  0  0  0  0  0  0  0
   49.0699   60.3129   32.4437 N   0  0  0  0  0  0  0  0  0  0  0  0
   49.9286   59.2589   32.8353 C   0  0  0  0  0  0  0  0  0  0  0  0
   49.1426   58.0927   33.0634 N   0  0  0  0  0  0  0  0  0  0  0  0
  2  1  1  6  0  0  0
  2  3  1  0  0  0  0
  2  5  1  0  0  0  0
  3  4  1  0  0  0  0
  3 17  1  0  0  0  0
  5  6  1  0  0  0  0
  7  6  1  6  0  0  0
  7  8  1  0  0  0  0
  7  9  1  0  0  0  0
 10  9  1  6  0  0  0
 10 11  1  0  0  0  0
 10 12  1  0  0  0  0
 11 16  1  0  0  0  0
 12 13  1  1  0  0  0
 12 14  1  0  0  0  0
 14 15  1  1  0  0  0
 14 16  1  0  0  0  0
 16 27  1  6  0  0  0
 18 19  2  0  0  0  0
 18 23  1  0  0  0  0
 19 20  1  0  0  0  0
 20 21  2  0  0  0  0
 21 22  1  0  0  0  0
 21 27  1  0  0  0  0
 22 23  2  0  0  0  0
 22 25  1  0  0  0  0
 23 24  1  0  0  0  0
 25 26  2  0  0  0  0
 26 27  1  0  0  0  0
M  END
>  <CHROM.1>
162.31278529,59.42400466,-175.98578884,-173.59734463,168.76799234,-65.17484182
96.80288621,48.06443795,55.99385085,30.99291135,-1.55501655,-1.09311346,0.79176996

>  <Name>
ligand

>  <RI>
0

>  <Rbt.Current_Directory>
/home/itssahil/PROJECTS/Mol_Feturizer/New_Systems/rnas/3GX2

>  <Rbt.Executable>
rbdock ($Id: //depot/dev/client3/rdock/2013.1/src/exe/rbdock.cxx#4 $)

>  <Rbt.Library>
libRbt.so (2013.1, Build901 2013/11/27)

>  <Rbt.Parameter_File>
/export/apps/rDock/src/rDock_2013.1_src/data/scripts/dock_solv.prm

>  <Rbt.Receptor>
prm/pocket_docking_8.prm

>  <SCORE>
-14.1069

>  <SCORE.INTER>
-11.3639

>  <SCORE.INTER.CONST>
1

>  <SCORE.INTER.POLAR>
0

>  <SCORE.INTER.ROT>
7

>  <SCORE.INTER.SOLV>
17.8078

>  <SCORE.INTER.VDW>
-21.7785

>  <SCORE.INTER.norm>
-0.420886

>  <SCORE.INTRA>
-2.74296

>  <SCORE.INTRA.DIHEDRAL>
-8.51394

>  <SCORE.INTRA.DIHEDRAL.0>
13.9704

>  <SCORE.INTRA.POLAR>
0

>  <SCORE.INTRA.POLAR.0>
0

>  <SCORE.INTRA.REPUL>
0

>  <SCORE.INTRA.REPUL.0>
0

>  <SCORE.INTRA.SOLV>
2.93946

>  <SCORE.INTRA.SOLV.lig_0>
-70.9758

>  <SCORE.INTRA.VDW>
0.0442758

>  <SCORE.INTRA.VDW.0>
-2.70686

>  <SCORE.INTRA.norm>
-0.101591

>  <SCORE.RESTR>
0

>  <SCORE.RESTR.CAVITY>
0

>  <SCORE.RESTR.norm>
0

>  <SCORE.SYSTEM>
0

>  <SCORE.SYSTEM.CONST>
0

>  <SCORE.SYSTEM.DIHEDRAL>
0

>  <SCORE.SYSTEM.SOLV>
0

>  <SCORE.SYSTEM.norm>
0

>  <SCORE.heavy>
27

>  <SCORE.norm>
-0.522477

>  <RMSD>
2.680

$$$$
ligand
 OpenBabel11021811473D
libRbt.so/2013.1/901 2013/11/27
 27 29  0  0  0  0  0  0  0  0999 V2000
   51.2113   52.3907   26.2016 N   0  0  0  0  0  0  0  0  0  0  0  0
   50.6147   52.3573   27.5350 C   0  0  2  0  0  0  0  0  0  0  0  0
   49.0947   52.1824   27.5323 C   0  0  0  0  0  0  0  0  0  0  0  0
   48.5816   51.6426   28.4555 O   0  0  0  0  0  0  0  0  0  0  0  0
   51.0893   53.4810   28.4801 C   0  0  0  0  0  0  0  0  0  0  0  0
   50.5519   53.5310   29.9375 C   0  0  0  0  0  0  0  0  0  0  0  0
   49.0728   53.9735   30.0952 C   0  0  2  0  0  0  0  0  0  0  0  0
   48.8648   55.3870   29.7811 N   0  0  0  0  0  0  0  0  0  0  0  0
   48.4781   53.5590   31.4764 C   0  0  0  0  0  0  0  0  0  0  0  0
   49.0231   54.2604   32.7661 C   0  0  1  0  0  0  0  0  0  0  0  0
   49.7587   55.5130   32.6360 O   0  0  0  0  0  0  0  0  0  0  0  0
   48.0001   54.5265   33.9057 C   0  0  1  0  0  0  0  0  0  0  0  0
   47.4381   53.3924   34.5788 O   0  0  0  0  0  0  0  0  0  0  0  0
   48.6199   55.6834   34.7492 C   0  0  1  0  0  0  0  0  0  0  0  0
   49.0954   55.3803   36.0387 O   0  0  0  0  0  0  0  0  0  0  0  0
   49.5661   56.3592   33.7517 C   0  0  2  0  0  0  0  0  0  0  0  0
   48.3212   53.0480   26.7335 O   0  0  0  0  0  0  0  0  0  0  0  0
   45.3234   59.3354   32.1302 N   0  0  0  0  0  0  0  0  0  0  0  0
   45.3349   57.9730   32.4506 C   0  0  0  0  0  0  0  0  0  0  0  0
   46.5782   57.3310   32.8715 N   0  0  0  0  0  0  0  0  0  0  0  0
   47.7340   58.0605   32.9551 C   0  0  0  0  0  0  0  0  0  0  0  0
   47.7140   59.4307   32.6290 C   0  0  0  0  0  0  0  0  0  0  0  0
   46.4748   60.0697   32.2089 C   0  0  0  0  0  0  0  0  0  0  0  0
   46.4519   61.4933   31.8707 N   0  0  0  0  0  0  0  0  0  0  0  0
   49.0496   59.9483   32.8001 N   0  0  0  0  0  0  0  0  0  0  0  0
   49.8739   58.8812   33.2283 C   0  0  0  0  0  0  0  0  0  0  0  0
   49.0773   57.7045   33.3321 N   0  0  0  0  0  0  0  0  0  0  0  0
  2  1  1  6  0  0  0
  2  3  1  0  0  0  0
  2  5  1  0  0  0  0
  3  4  1  0  0  0  0
  3 17  1  0  0  0  0
  5  6  1  0  0  0  0
  7  6  1  1  0  0  0
  7  8  1  0  0  0  0
  7  9  1  0  0  0  0
 10  9  1  6  0  0  0
 10 11  1  0  0  0  0
 10 12  1  0  0  0  0
 11 16  1  0  0  0  0
 12 13  1  1  0  0  0
 12 14  1  0  0  0  0
 14 15  1  1  0  0  0
 14 16  1  0  0  0  0
 16 27  1  6  0  0  0
 18 19  2  0  0  0  0
 18 23  1  0  0  0  0
 19 20  1  0  0  0  0
 20 21  2  0  0  0  0
 21 22  1  0  0  0  0
 21 27  1  0  0  0  0
 22 23  2  0  0  0  0
 22 25  1  0  0  0  0
 23 24  1  0  0  0  0
 25 26  2  0  0  0  0
 26 27  1  0  0  0  0
M  END
>  <CHROM.1>
151.17014217,-178.52028976,-72.44931201,-69.54425942,68.31667519,17.50704479
78.37572485,48.57724720,55.70406159,31.49694603,0.64204868,1.21812718,-1.52833840

>  <Name>
ligand

>  <RI>
0

>  <Rbt.Current_Directory>
/home/itssahil/PROJECTS/Mol_Feturizer/New_Systems/rnas/3GX2

>  <Rbt.Executable>
rbdock ($Id: //depot/dev/client3/rdock/2013.1/src/exe/rbdock.cxx#4 $)

>  <Rbt.Library>
libRbt.so (2013.1, Build901 2013/11/27)

>  <Rbt.Parameter_File>
/export/apps/rDock/src/rDock_2013.1_src/data/scripts/dock_solv.prm

>  <Rbt.Receptor>
prm/pocket_docking_5.prm

>  <SCORE>
-14.2318

>  <SCORE.INTER>
-13.775

>  <SCORE.INTER.CONST>
1

>  <SCORE.INTER.POLAR>
0

>  <SCORE.INTER.ROT>
7

>  <SCORE.INTER.SOLV>
17.7047

>  <SCORE.INTER.VDW>
-23.3516

>  <SCORE.INTER.norm>
-0.510187

>  <SCORE.INTRA>
-0.456807

>  <SCORE.INTRA.DIHEDRAL>
-3.37626

>  <SCORE.INTRA.DIHEDRAL.0>
13.9704

>  <SCORE.INTRA.POLAR>
0

>  <SCORE.INTRA.POLAR.0>
0

>  <SCORE.INTRA.REPUL>
0

>  <SCORE.INTRA.REPUL.0>
0

>  <SCORE.INTRA.SOLV>
3.37827

>  <SCORE.INTRA.SOLV.lig_0>
-70.9758

>  <SCORE.INTRA.VDW>
-0.457811

>  <SCORE.INTRA.VDW.0>
-2.70686

>  <SCORE.INTRA.norm>
-0.0169188

>  <SCORE.RESTR>
0

>  <SCORE.RESTR.CAVITY>
0

>  <SCORE.RESTR.norm>
0

>  <SCORE.SYSTEM>
0

>  <SCORE.SYSTEM.CONST>
0

>  <SCORE.SYSTEM.DIHEDRAL>
0

>  <SCORE.SYSTEM.SOLV>
0

>  <SCORE.SYSTEM.norm>
0

>  <SCORE.heavy>
27

>  <SCORE.norm>
-0.527105

>  <RMSD>
2.684

$$$$
ligand
 OpenBabel11021811473D
libRbt.so/2013.1/901 2013/11/27
 27 29  0  0  0  0  0  0  0  0999 V2000
   46.9136   57.2383   26.4076 N   0  0  0  0  0  0  0  0  0  0  0  0
   47.7555   56.7893   27.5142 C   0  0  2  0  0  0  0  0  0  0  0  0
   48.0263   57.8664   28.5667 C   0  0  0  0  0  0  0  0  0  0  0  0
   47.7304   57.6482   29.6944 O   0  0  0  0  0  0  0  0  0  0  0  0
   49.0303   56.0323   27.0863 C   0  0  0  0  0  0  0  0  0  0  0  0
   49.4644   54.7631   27.8710 C   0  0  0  0  0  0  0  0  0  0  0  0
   50.6682   54.9450   28.8334 C   0  0  2  0  0  0  0  0  0  0  0  0
   51.1768   53.6765   29.3552 N   0  0  0  0  0  0  0  0  0  0  0  0
   50.3758   55.9936   29.9506 C   0  0  0  0  0  0  0  0  0  0  0  0
   49.5125   55.5545   31.1811 C   0  0  1  0  0  0  0  0  0  0  0  0
   49.1240   56.5548   32.1690 O   0  0  0  0  0  0  0  0  0  0  0  0
   48.2007   54.7783   30.8768 C   0  0  1  0  0  0  0  0  0  0  0  0
   48.3153   53.4706   30.3007 O   0  0  0  0  0  0  0  0  0  0  0  0
   47.3048   54.9797   32.1381 C   0  0  1  0  0  0  0  0  0  0  0  0
   47.0799   53.8697   32.9736 O   0  0  0  0  0  0  0  0  0  0  0  0
   47.8693   56.2650   32.7515 C   0  0  2  0  0  0  0  0  0  0  0  0
   49.0135   58.8350   28.2967 O   0  0  0  0  0  0  0  0  0  0  0  0
   47.2984   61.5252   31.5303 N   0  0  0  0  0  0  0  0  0  0  0  0
   48.4792   60.7739   31.5278 C   0  0  0  0  0  0  0  0  0  0  0  0
   48.4462   59.3580   31.8871 N   0  0  0  0  0  0  0  0  0  0  0  0
   47.2603   58.7626   32.2254 C   0  0  0  0  0  0  0  0  0  0  0  0
   46.0768   59.5264   32.2272 C   0  0  0  0  0  0  0  0  0  0  0  0
   46.1106   60.9376   31.8696 C   0  0  0  0  0  0  0  0  0  0  0  0
   44.8820   61.7326   31.8700 N   0  0  0  0  0  0  0  0  0  0  0  0
   44.9900   58.6621   32.6179 N   0  0  0  0  0  0  0  0  0  0  0  0
   45.5266   57.3745   32.8538 C   0  0  0  0  0  0  0  0  0  0  0  0
   46.9305   57.4159   32.6142 N   0  0  0  0  0  0  0  0  0  0  0  0
  2  1  1  6  0  0  0
  2  3  1  0  0  0  0
  2  5  1  0  0  0  0
  3  4  1  0  0  0  0
  3 17  1  0  0  0  0
  5  6  1  0  0  0  0
  7  6  1  1  0  0  0
  7  8  1  0  0  0  0
  7  9  1  0  0  0  0
 10  9  1  6  0  0  0
 10 11  1  0  0  0  0
 10 12  1  0  0  0  0
 11 16  1  0  0  0  0
 12 13  1  1  0  0  0
 12 14  1  0  0  0  0
 14 15  1  1  0  0  0
 14 16  1  0  0  0  0
 16 27  1  6  0  0  0
 18 19  2  0  0  0  0
 18 23  1  0  0  0  0
 19 20  1  0  0  0  0
 20 21  2  0  0  0  0
 21 22  1  0  0  0  0
 21 27  1  0  0  0  0
 22 23  2  0  0  0  0
 22 25  1  0  0  0  0
 23 24  1  0  0  0  0
 25 26  2  0  0  0  0
 26 27  1  0  0  0  0
M  END
>  <CHROM.1>
123.09638893,-138.13105691,-104.61929616,-169.69630897,79.12411933,-174.21524878
-13.03072805,47.94138347,57.16801492,30.60412409,-0.30402060,1.07622263,-0.73309831

>  <Name>
ligand

>  <RI>
0

>  <Rbt.Current_Directory>
/home/itssahil/PROJECTS/Mol_Feturizer/New_Systems/rnas/3GX2

>  <Rbt.Executable>
rbdock ($Id: //depot/dev/client3/rdock/2013.1/src/exe/rbdock.cxx#4 $)

>  <Rbt.Library>
libRbt.so (2013.1, Build901 2013/11/27)

>  <Rbt.Parameter_File>
/export/apps/rDock/src/rDock_2013.1_src/data/scripts/dock_solv.prm

>  <Rbt.Receptor>
prm/pocket_docking_2.prm

>  <SCORE>
-4.77895

>  <SCORE.INTER>
-5.55019

>  <SCORE.INTER.CONST>
1

>  <SCORE.INTER.POLAR>
0

>  <SCORE.INTER.ROT>
7

>  <SCORE.INTER.SOLV>
27.0257

>  <SCORE.INTER.VDW>
-20.9754

>  <SCORE.INTER.norm>
-0.205563

>  <SCORE.INTRA>
0.373084

>  <SCORE.INTRA.DIHEDRAL>
1.6568

>  <SCORE.INTRA.DIHEDRAL.0>
13.9704

>  <SCORE.INTRA.POLAR>
0

>  <SCORE.INTRA.POLAR.0>
0

>  <SCORE.INTRA.REPUL>
0

>  <SCORE.INTRA.REPUL.0>
0

>  <SCORE.INTRA.SOLV>
3.56937

>  <SCORE.INTRA.SOLV.lig_0>
-70.9758

>  <SCORE.INTRA.VDW>
-2.24

>  <SCORE.INTRA.VDW.0>
-2.70686

>  <SCORE.INTRA.norm>
0.0138179

>  <SCORE.RESTR>
0.398158

>  <SCORE.RESTR.CAVITY>
0.398158

>  <SCORE.RESTR.norm>
0.0147466

>  <SCORE.SYSTEM>
0

>  <SCORE.SYSTEM.CONST>
0

>  <SCORE.SYSTEM.DIHEDRAL>
0

>  <SCORE.SYSTEM.SOLV>
0

>  <SCORE.SYSTEM.norm>
0

>  <SCORE.heavy>
27

>  <SCORE.norm>
-0.176998

>  <RMSD>
2.685

$$$$
ligand
 OpenBabel11021811483D
libRbt.so/2013.1/901 2013/11/27
 27 29  0  0  0  0  0  0  0  0999 V2000
   49.8914   52.2067   26.2256 N   0  0  0  0  0  0  0  0  0  0  0  0
   48.4986   52.0027   26.6174 C   0  0  2  0  0  0  0  0  0  0  0  0
   47.4899   52.2962   25.5049 C   0  0  0  0  0  0  0  0  0  0  0  0
   46.3433   52.0635   25.6995 O   0  0  0  0  0  0  0  0  0  0  0  0
   48.1097   52.6431   27.9664 C   0  0  0  0  0  0  0  0  0  0  0  0
   48.6852   52.0553   29.2849 C   0  0  0  0  0  0  0  0  0  0  0  0
   48.3747   52.8617   30.5740 C   0  0  2  0  0  0  0  0  0  0  0  0
   46.9520   53.1663   30.7262 N   0  0  0  0  0  0  0  0  0  0  0  0
   49.2887   54.1175   30.7176 C   0  0  0  0  0  0  0  0  0  0  0  0
   49.5063   54.7250   32.1446 C   0  0  1  0  0  0  0  0  0  0  0  0
   50.1397   56.0327   32.2704 O   0  0  0  0  0  0  0  0  0  0  0  0
   48.2604   54.8054   33.0704 C   0  0  1  0  0  0  0  0  0  0  0  0
   47.6797   53.5740   33.5194 O   0  0  0  0  0  0  0  0  0  0  0  0
   48.5983   55.9142   34.1146 C   0  0  1  0  0  0  0  0  0  0  0  0
   48.8367   55.5197   35.4444 O   0  0  0  0  0  0  0  0  0  0  0  0
   49.6582   56.7494   33.3895 C   0  0  2  0  0  0  0  0  0  0  0  0
   47.8353   53.2414   24.5186 O   0  0  0  0  0  0  0  0  0  0  0  0
   45.3052   59.7491   32.1481 N   0  0  0  0  0  0  0  0  0  0  0  0
   45.3339   58.3940   32.4972 C   0  0  0  0  0  0  0  0  0  0  0  0
   46.6066   57.7438   32.8016 N   0  0  0  0  0  0  0  0  0  0  0  0
   47.7733   58.4586   32.7478 C   0  0  0  0  0  0  0  0  0  0  0  0
   47.7357   59.8215   32.3938 C   0  0  0  0  0  0  0  0  0  0  0  0
   46.4671   60.4686   32.0898 C   0  0  0  0  0  0  0  0  0  0  0  0
   46.4259   61.8846   31.7228 N   0  0  0  0  0  0  0  0  0  0  0  0
   49.0878   60.3237   32.4132 N   0  0  0  0  0  0  0  0  0  0  0  0
   49.9396   59.2547   32.7784 C   0  0  0  0  0  0  0  0  0  0  0  0
   49.1443   58.0920   32.9917 N   0  0  0  0  0  0  0  0  0  0  0  0
  2  1  1  6  0  0  0
  2  3  1  0  0  0  0
  2  5  1  0  0  0  0
  3  4  1  0  0  0  0
  3 17  1  0  0  0  0
  5  6  1  0  0  0  0
  7  6  1  6  0  0  0
  7  8  1  0  0  0  0
  7  9  1  0  0  0  0
 10  9  1  6  0  0  0
 10 11  1  0  0  0  0
 10 12  1  0  0  0  0
 11 16  1  0  0  0  0
 12 13  1  1  0  0  0
 12 14  1  0  0  0  0
 14 15  1  1  0  0  0
 14 16  1  0  0  0  0
 16 27  1  6  0  0  0
 18 19  2  0  0  0  0
 18 23  1  0  0  0  0
 19 20  1  0  0  0  0
 20 21  2  0  0  0  0
 21 22  1  0  0  0  0
 21 27  1  0  0  0  0
 22 23  2  0  0  0  0
 22 25  1  0  0  0  0
 23 24  1  0  0  0  0
 25 26  2  0  0  0  0
 26 27  1  0  0  0  0
M  END
>  <CHROM.1>
174.47691929,-69.48104456,173.10156513,51.22860395,-157.25426287,-168.40504957
97.80293793,48.08192644,55.74898902,30.92090017,1.48601000,1.16688073,-2.30635717

>  <Name>
ligand

>  <RI>
0

>  <Rbt.Current_Directory>
/home/itssahil/PROJECTS/Mol_Feturizer/New_Systems/rnas/3GX2

>  <Rbt.Executable>
rbdock ($Id: //depot/dev/client3/rdock/2013.1/src/exe/rbdock.cxx#4 $)

>  <Rbt.Library>
libRbt.so (2013.1, Build901 2013/11/27)

>  <Rbt.Parameter_File>
/export/apps/rDock/src/rDock_2013.1_src/data/scripts/dock_solv.prm

>  <Rbt.Receptor>
prm/pocket_docking_8.prm

>  <SCORE>
-14.9508

>  <SCORE.INTER>
-13.61

>  <SCORE.INTER.CONST>
1

>  <SCORE.INTER.POLAR>
0

>  <SCORE.INTER.ROT>
7

>  <SCORE.INTER.SOLV>
19.892

>  <SCORE.INTER.VDW>
-23.9707

>  <SCORE.INTER.norm>
-0.504075

>  <SCORE.INTRA>
-1.34077

>  <SCORE.INTRA.DIHEDRAL>
-6.21851

>  <SCORE.INTRA.DIHEDRAL.0>
13.9704

>  <SCORE.INTRA.POLAR>
0

>  <SCORE.INTRA.POLAR.0>
0

>  <SCORE.INTRA.REPUL>
0

>  <SCORE.INTRA.REPUL.0>
0

>  <SCORE.INTRA.SOLV>
2.57966

>  <SCORE.INTRA.SOLV.lig_0>
-70.9758

>  <SCORE.INTRA.VDW>
0.478661

>  <SCORE.INTRA.VDW.0>
-2.70686

>  <SCORE.INTRA.norm>
-0.0496581

>  <SCORE.RESTR>
0

>  <SCORE.RESTR.CAVITY>
0

>  <SCORE.RESTR.norm>
0

>  <SCORE.SYSTEM>
0

>  <SCORE.SYSTEM.CONST>
0

>  <SCORE.SYSTEM.DIHEDRAL>
0

>  <SCORE.SYSTEM.SOLV>
0

>  <SCORE.SYSTEM.norm>
0

>  <SCORE.heavy>
27

>  <SCORE.norm>
-0.553733

>  <RMSD>
2.707

$$$$
ligand
 OpenBabel11021811473D
libRbt.so/2013.1/901 2013/11/27
 27 29  0  0  0  0  0  0  0  0999 V2000
   48.1362   54.0853   26.6862 N   0  0  0  0  0  0  0  0  0  0  0  0
   48.8843   54.0594   27.9411 C   0  0  2  0  0  0  0  0  0  0  0  0
   50.2590   54.7265   27.8598 C   0  0  0  0  0  0  0  0  0  0  0  0
   50.9631   54.4703   26.9403 O   0  0  0  0  0  0  0  0  0  0  0  0
   48.9237   52.6833   28.6380 C   0  0  0  0  0  0  0  0  0  0  0  0
   47.8527   52.3393   29.7103 C   0  0  0  0  0  0  0  0  0  0  0  0
   47.8130   53.2755   30.9474 C   0  0  2  0  0  0  0  0  0  0  0  0
   47.3794   54.6337   30.6199 N   0  0  0  0  0  0  0  0  0  0  0  0
   49.1449   53.2365   31.7584 C   0  0  0  0  0  0  0  0  0  0  0  0
   49.2891   54.1732   33.0051 C   0  0  1  0  0  0  0  0  0  0  0  0
   49.3520   55.6165   32.8051 O   0  0  0  0  0  0  0  0  0  0  0  0
   48.2537   53.9836   34.1487 C   0  0  1  0  0  0  0  0  0  0  0  0
   48.2852   52.7525   34.8826 O   0  0  0  0  0  0  0  0  0  0  0  0
   48.2531   55.3354   34.9275 C   0  0  1  0  0  0  0  0  0  0  0  0
   48.8071   55.3537   36.2212 O   0  0  0  0  0  0  0  0  0  0  0  0
   48.7779   56.3266   33.8840 C   0  0  2  0  0  0  0  0  0  0  0  0
   50.4603   55.9350   28.5560 O   0  0  0  0  0  0  0  0  0  0  0  0
   47.6639   61.0733   31.4933 N   0  0  0  0  0  0  0  0  0  0  0  0
   48.9258   60.5321   31.7647 C   0  0  0  0  0  0  0  0  0  0  0  0
   49.0383   59.2313   32.4207 N   0  0  0  0  0  0  0  0  0  0  0  0
   47.9101   58.5382   32.7698 C   0  0  0  0  0  0  0  0  0  0  0  0
   46.6440   59.0908   32.4948 C   0  0  0  0  0  0  0  0  0  0  0  0
   46.5326   60.3876   31.8416 C   0  0  0  0  0  0  0  0  0  0  0  0
   45.2182   60.9629   31.5543 N   0  0  0  0  0  0  0  0  0  0  0  0
   45.6426   58.1640   32.9629 N   0  0  0  0  0  0  0  0  0  0  0  0
   46.3134   57.0517   33.5236 C   0  0  0  0  0  0  0  0  0  0  0  0
   47.7179   57.2637   33.4117 N   0  0  0  0  0  0  0  0  0  0  0  0
  2  1  1  6  0  0  0
  2  3  1  0  0  0  0
  2  5  1  0  0  0  0
  3  4  1  0  0  0  0
  3 17  1  0  0  0  0
  5  6  1  0  0  0  0
  7  6  1  6  0  0  0
  7  8  1  0  0  0  0
  7  9  1  0  0  0  0
 10  9  1  6  0  0  0
 10 11  1  0  0  0  0
 10 12  1  0  0  0  0
 11 16  1  0  0  0  0
 12 13  1  1  0  0  0
 12 14  1  0  0  0  0
 14 15  1  1  0  0  0
 14 16  1  0  0  0  0
 16 27  1  6  0  0  0
 18 19  2  0  0  0  0
 18 23  1  0  0  0  0
 19 20  1  0  0  0  0
 20 21  2  0  0  0  0
 21 22  1  0  0  0  0
 21 27  1  0  0  0  0
 22 23  2  0  0  0  0
 22 25  1  0  0  0  0
 23 24  1  0  0  0  0
 25 26  2  0  0  0  0
 26 27  1  0  0  0  0
M  END
>  <CHROM.1>
-46.32992770,-92.80946240,-60.03114323,66.97120625,177.44698665,-67.66549050
-76.92779002,48.29035408,56.03483061,31.60110358,0.06924810,1.28434844,-0.97373191

>  <Name>
ligand

>  <RI>
0

>  <Rbt.Current_Directory>
/home/itssahil/PROJECTS/Mol_Feturizer/New_Systems/rnas/3GX2

>  <Rbt.Executable>
rbdock ($Id: //depot/dev/client3/rdock/2013.1/src/exe/rbdock.cxx#4 $)

>  <Rbt.Library>
libRbt.so (2013.1, Build901 2013/11/27)

>  <Rbt.Parameter_File>
/export/apps/rDock/src/rDock_2013.1_src/data/scripts/dock_solv.prm

>  <Rbt.Receptor>
prm/pocket_docking_3.prm

>  <SCORE>
-11.8585

>  <SCORE.INTER>
-10.9251

>  <SCORE.INTER.CONST>
1

>  <SCORE.INTER.POLAR>
0

>  <SCORE.INTER.ROT>
7

>  <SCORE.INTER.SOLV>
16.7586

>  <SCORE.INTER.VDW>
-21.1363

>  <SCORE.INTER.norm>
-0.404632

>  <SCORE.INTRA>
-0.933456

>  <SCORE.INTRA.DIHEDRAL>
-6.26644

>  <SCORE.INTRA.DIHEDRAL.0>
13.9704

>  <SCORE.INTRA.POLAR>
0

>  <SCORE.INTRA.POLAR.0>
0

>  <SCORE.INTRA.REPUL>
0

>  <SCORE.INTRA.REPUL.0>
0

>  <SCORE.INTRA.SOLV>
4.52032

>  <SCORE.INTRA.SOLV.lig_0>
-70.9758

>  <SCORE.INTRA.VDW>
-0.0603942

>  <SCORE.INTRA.VDW.0>
-2.70686

>  <SCORE.INTRA.norm>
-0.0345724

>  <SCORE.RESTR>
0

>  <SCORE.RESTR.CAVITY>
0

>  <SCORE.RESTR.norm>
0

>  <SCORE.SYSTEM>
0

>  <SCORE.SYSTEM.CONST>
0

>  <SCORE.SYSTEM.DIHEDRAL>
0

>  <SCORE.SYSTEM.SOLV>
0

>  <SCORE.SYSTEM.norm>
0

>  <SCORE.heavy>
27

>  <SCORE.norm>
-0.439205

>  <RMSD>
2.735

$$$$
ligand
 OpenBabel11021811473D
libRbt.so/2013.1/901 2013/11/27
 27 29  0  0  0  0  0  0  0  0999 V2000
   47.9315   53.9544   26.2471 N   0  0  0  0  0  0  0  0  0  0  0  0
   48.3367   53.2314   27.4505 C   0  0  2  0  0  0  0  0  0  0  0  0
   49.2203   52.0127   27.1763 C   0  0  0  0  0  0  0  0  0  0  0  0
   49.0906   51.4345   26.1488 O   0  0  0  0  0  0  0  0  0  0  0  0
   47.1893   52.9326   28.4381 C   0  0  0  0  0  0  0  0  0  0  0  0
   47.5229   52.3790   29.8514 C   0  0  0  0  0  0  0  0  0  0  0  0
   48.3423   53.3249   30.7693 C   0  0  2  0  0  0  0  0  0  0  0  0
   49.7868   53.1883   30.5832 N   0  0  0  0  0  0  0  0  0  0  0  0
   47.9046   53.2209   32.2629 C   0  0  0  0  0  0  0  0  0  0  0  0
   48.7348   53.9957   33.3412 C   0  0  1  0  0  0  0  0  0  0  0  0
   49.5344   55.1445   32.9311 O   0  0  0  0  0  0  0  0  0  0  0  0
   47.9660   54.4861   34.5999 C   0  0  1  0  0  0  0  0  0  0  0  0
   47.4468   53.4944   35.4955 O   0  0  0  0  0  0  0  0  0  0  0  0
   48.8244   55.6561   35.1729 C   0  0  1  0  0  0  0  0  0  0  0  0
   49.5039   55.4447   36.3872 O   0  0  0  0  0  0  0  0  0  0  0  0
   49.6220   56.1201   33.9501 C   0  0  2  0  0  0  0  0  0  0  0  0
   50.4395   51.8976   27.8735 O   0  0  0  0  0  0  0  0  0  0  0  0
   45.4634   59.1605   32.2326 N   0  0  0  0  0  0  0  0  0  0  0  0
   45.4293   57.8204   32.6347 C   0  0  0  0  0  0  0  0  0  0  0  0
   46.6556   57.1557   33.0698 N   0  0  0  0  0  0  0  0  0  0  0  0
   47.8402   57.8424   33.0870 C   0  0  0  0  0  0  0  0  0  0  0  0
   47.8661   59.1903   32.6789 C   0  0  0  0  0  0  0  0  0  0  0  0
   46.6437   59.8519   32.2447 C   0  0  0  0  0  0  0  0  0  0  0  0
   46.6685   61.2524   31.8213 N   0  0  0  0  0  0  0  0  0  0  0  0
   49.2240   59.6637   32.7927 N   0  0  0  0  0  0  0  0  0  0  0  0
   50.0156   58.5921   33.2690 C   0  0  0  0  0  0  0  0  0  0  0  0
   49.1766   57.4564   33.4592 N   0  0  0  0  0  0  0  0  0  0  0  0
  2  1  1  6  0  0  0
  2  3  1  0  0  0  0
  2  5  1  0  0  0  0
  3  4  1  0  0  0  0
  3 17  1  0  0  0  0
  5  6  1  0  0  0  0
  7  6  1  6  0  0  0
  7  8  1  0  0  0  0
  7  9  1  0  0  0  0
 10  9  1  6  0  0  0
 10 11  1  0  0  0  0
 10 12  1  0  0  0  0
 11 16  1  0  0  0  0
 12 13  1  1  0  0  0
 12 14  1  0  0  0  0
 14 15  1  1  0  0  0
 14 16  1  0  0  0  0
 16 27  1  6  0  0  0
 18 19  2  0  0  0  0
 18 23  1  0  0  0  0
 19 20  1  0  0  0  0
 20 21  2  0  0  0  0
 21 22  1  0  0  0  0
 21 27  1  0  0  0  0
 22 23  2  0  0  0  0
 22 25  1  0  0  0  0
 23 24  1  0  0  0  0
 25 26  2  0  0  0  0
 26 27  1  0  0  0  0
M  END
>  <CHROM.1>
-29.43000436,-170.12077083,63.88063144,-87.27493449,173.53357769,22.71095605
68.12104234,48.27129699,55.43921232,31.67356859,1.18875788,1.26203595,-1.98282435

>  <Name>
ligand

>  <RI>
0

>  <Rbt.Current_Directory>
/home/itssahil/PROJECTS/Mol_Feturizer/New_Systems/rnas/3GX2

>  <Rbt.Executable>
rbdock ($Id: //depot/dev/client3/rdock/2013.1/src/exe/rbdock.cxx#4 $)

>  <Rbt.Library>
libRbt.so (2013.1, Build901 2013/11/27)

>  <Rbt.Parameter_File>
/export/apps/rDock/src/rDock_2013.1_src/data/scripts/dock_solv.prm

>  <Rbt.Receptor>
prm/pocket_docking_4.prm

>  <SCORE>
-13.4472

>  <SCORE.INTER>
-13.0502

>  <SCORE.INTER.CONST>
1

>  <SCORE.INTER.POLAR>
0

>  <SCORE.INTER.ROT>
7

>  <SCORE.INTER.SOLV>
19.5604

>  <SCORE.INTER.VDW>
-23.4869

>  <SCORE.INTER.norm>
-0.48334

>  <SCORE.INTRA>
-0.397006

>  <SCORE.INTRA.DIHEDRAL>
-2.92554

>  <SCORE.INTRA.DIHEDRAL.0>
13.9704

>  <SCORE.INTRA.POLAR>
0

>  <SCORE.INTRA.POLAR.0>
0

>  <SCORE.INTRA.REPUL>
0

>  <SCORE.INTRA.REPUL.0>
0

>  <SCORE.INTRA.SOLV>
3.3302

>  <SCORE.INTRA.SOLV.lig_0>
-70.9758

>  <SCORE.INTRA.VDW>
-0.599337

>  <SCORE.INTRA.VDW.0>
-2.70686

>  <SCORE.INTRA.norm>
-0.0147039

>  <SCORE.RESTR>
0

>  <SCORE.RESTR.CAVITY>
0

>  <SCORE.RESTR.norm>
0

>  <SCORE.SYSTEM>
0

>  <SCORE.SYSTEM.CONST>
0

>  <SCORE.SYSTEM.DIHEDRAL>
0

>  <SCORE.SYSTEM.SOLV>
0

>  <SCORE.SYSTEM.norm>
0

>  <SCORE.heavy>
27

>  <SCORE.norm>
-0.498044

>  <RMSD>
2.758

$$$$
ligand
 OpenBabel11021811473D
libRbt.so/2013.1/901 2013/11/27
 27 29  0  0  0  0  0  0  0  0999 V2000
   48.0265   52.7748   26.1898 N   0  0  0  0  0  0  0  0  0  0  0  0
   46.9233   52.4710   27.0985 C   0  0  2  0  0  0  0  0  0  0  0  0
   45.5432   52.5187   26.4395 C   0  0  0  0  0  0  0  0  0  0  0  0
   45.4775   52.5327   25.2553 O   0  0  0  0  0  0  0  0  0  0  0  0
   46.9734   53.2233   28.4448 C   0  0  0  0  0  0  0  0  0  0  0  0
   48.1057   52.8995   29.4589 C   0  0  0  0  0  0  0  0  0  0  0  0
   48.1799   53.8236   30.7035 C   0  0  2  0  0  0  0  0  0  0  0  0
   48.4347   55.2225   30.3596 N   0  0  0  0  0  0  0  0  0  0  0  0
   49.1551   53.2723   31.7890 C   0  0  0  0  0  0  0  0  0  0  0  0
   49.3007   54.0615   33.1338 C   0  0  1  0  0  0  0  0  0  0  0  0
   49.9264   55.3788   33.1196 O   0  0  0  0  0  0  0  0  0  0  0  0
   48.0099   54.2529   33.9783 C   0  0  1  0  0  0  0  0  0  0  0  0
   47.4080   53.0862   34.5544 O   0  0  0  0  0  0  0  0  0  0  0  0
   48.2946   55.4903   34.8849 C   0  0  1  0  0  0  0  0  0  0  0  0
   48.4663   55.2735   36.2649 O   0  0  0  0  0  0  0  0  0  0  0  0
   49.3891   56.2315   34.1107 C   0  0  2  0  0  0  0  0  0  0  0  0
   44.4312   52.0676   27.1781 O   0  0  0  0  0  0  0  0  0  0  0  0
   45.0847   59.0643   32.3975 N   0  0  0  0  0  0  0  0  0  0  0  0
   45.0938   57.7740   32.9397 C   0  0  0  0  0  0  0  0  0  0  0  0
   46.3556   57.1617   33.3498 N   0  0  0  0  0  0  0  0  0  0  0  0
   47.5312   57.8490   33.2064 C   0  0  0  0  0  0  0  0  0  0  0  0
   47.5134   59.1464   32.6581 C   0  0  0  0  0  0  0  0  0  0  0  0
   46.2557   59.7557   32.2489 C   0  0  0  0  0  0  0  0  0  0  0  0
   46.2350   61.1037   31.6800 N   0  0  0  0  0  0  0  0  0  0  0  0
   48.8711   59.6321   32.6201 N   0  0  0  0  0  0  0  0  0  0  0  0
   49.7064   58.6186   33.1461 C   0  0  0  0  0  0  0  0  0  0  0  0
   48.8953   57.5074   33.5165 N   0  0  0  0  0  0  0  0  0  0  0  0
  2  1  1  6  0  0  0
  2  3  1  0  0  0  0
  2  5  1  0  0  0  0
  3  4  1  0  0  0  0
  3 17  1  0  0  0  0
  5  6  1  0  0  0  0
  7  6  1  6  0  0  0
  7  8  1  0  0  0  0
  7  9  1  0  0  0  0
 10  9  1  6  0  0  0
 10 11  1  0  0  0  0
 10 12  1  0  0  0  0
 11 16  1  0  0  0  0
 12 13  1  1  0  0  0
 12 14  1  0  0  0  0
 14 15  1  1  0  0  0
 14 16  1  0  0  0  0
 16 27  1  6  0  0  0
 18 19  2  0  0  0  0
 18 23  1  0  0  0  0
 19 20  1  0  0  0  0
 20 21  2  0  0  0  0
 21 22  1  0  0  0  0
 21 27  1  0  0  0  0
 22 23  2  0  0  0  0
 22 25  1  0  0  0  0
 23 24  1  0  0  0  0
 25 26  2  0  0  0  0
 26 27  1  0  0  0  0
M  END
>  <CHROM.1>
14.18643149,-67.28778492,172.71394712,-61.59892476,-177.64430680,-67.77862516
100.35704576,47.53067575,55.53136176,31.46663023,1.93322886,1.05922765,-2.55492161

>  <Name>
ligand

>  <RI>
0

>  <Rbt.Current_Directory>
/home/itssahil/PROJECTS/Mol_Feturizer/New_Systems/rnas/3GX2

>  <Rbt.Executable>
rbdock ($Id: //depot/dev/client3/rdock/2013.1/src/exe/rbdock.cxx#4 $)

>  <Rbt.Library>
libRbt.so (2013.1, Build901 2013/11/27)

>  <Rbt.Parameter_File>
/export/apps/rDock/src/rDock_2013.1_src/data/scripts/dock_solv.prm

>  <Rbt.Receptor>
prm/pocket_docking_5.prm

>  <SCORE>
-15.5808

>  <SCORE.INTER>
-12.4641

>  <SCORE.INTER.CONST>
1

>  <SCORE.INTER.POLAR>
0

>  <SCORE.INTER.ROT>
7

>  <SCORE.INTER.SOLV>
16.7958

>  <SCORE.INTER.VDW>
-22.1747

>  <SCORE.INTER.norm>
-0.461634

>  <SCORE.INTRA>
-3.11668

>  <SCORE.INTRA.DIHEDRAL>
-8.38029

>  <SCORE.INTRA.DIHEDRAL.0>
13.9704

>  <SCORE.INTRA.POLAR>
0

>  <SCORE.INTRA.POLAR.0>
0

>  <SCORE.INTRA.REPUL>
0

>  <SCORE.INTRA.REPUL.0>
0

>  <SCORE.INTRA.SOLV>
2.32971

>  <SCORE.INTRA.SOLV.lig_0>
-70.9758

>  <SCORE.INTRA.VDW>
-0.0913878

>  <SCORE.INTRA.VDW.0>
-2.70686

>  <SCORE.INTRA.norm>
-0.115433

>  <SCORE.RESTR>
0

>  <SCORE.RESTR.CAVITY>
0

>  <SCORE.RESTR.norm>
0

>  <SCORE.SYSTEM>
0

>  <SCORE.SYSTEM.CONST>
0

>  <SCORE.SYSTEM.DIHEDRAL>
0

>  <SCORE.SYSTEM.SOLV>
0

>  <SCORE.SYSTEM.norm>
0

>  <SCORE.heavy>
27

>  <SCORE.norm>
-0.577067

>  <RMSD>
2.759

$$$$
ligand
 OpenBabel11021811473D
libRbt.so/2013.1/901 2013/11/27
 27 29  0  0  0  0  0  0  0  0999 V2000
   47.7480   53.9002   26.8157 N   0  0  0  0  0  0  0  0  0  0  0  0
   48.5975   53.1538   27.7410 C   0  0  2  0  0  0  0  0  0  0  0  0
   49.7159   52.3632   27.0589 C   0  0  0  0  0  0  0  0  0  0  0  0
   50.6758   52.0722   27.6920 O   0  0  0  0  0  0  0  0  0  0  0  0
   47.8302   52.3254   28.7927 C   0  0  0  0  0  0  0  0  0  0  0  0
   46.8453   53.0413   29.7585 C   0  0  0  0  0  0  0  0  0  0  0  0
   47.4956   53.9753   30.8135 C   0  0  2  0  0  0  0  0  0  0  0  0
   48.1923   55.1134   30.2140 N   0  0  0  0  0  0  0  0  0  0  0  0
   48.3736   53.1886   31.8350 C   0  0  0  0  0  0  0  0  0  0  0  0
   48.8852   53.9357   33.1127 C   0  0  1  0  0  0  0  0  0  0  0  0
   49.6564   55.1637   32.9560 O   0  0  0  0  0  0  0  0  0  0  0  0
   47.8254   54.2776   34.1971 C   0  0  1  0  0  0  0  0  0  0  0  0
   47.2093   53.1890   34.8974 O   0  0  0  0  0  0  0  0  0  0  0  0
   48.4404   55.4574   35.0119 C   0  0  1  0  0  0  0  0  0  0  0  0
   48.8574   55.2030   36.3318 O   0  0  0  0  0  0  0  0  0  0  0  0
   49.4415   56.0645   34.0238 C   0  0  2  0  0  0  0  0  0  0  0  0
   49.3994   51.6050   25.9141 O   0  0  0  0  0  0  0  0  0  0  0  0
   45.2957   59.1231   32.3079 N   0  0  0  0  0  0  0  0  0  0  0  0
   45.2538   57.7866   32.7211 C   0  0  0  0  0  0  0  0  0  0  0  0
   46.4777   57.1159   33.1539 N   0  0  0  0  0  0  0  0  0  0  0  0
   47.6677   57.7935   33.1579 C   0  0  0  0  0  0  0  0  0  0  0  0
   47.7014   59.1378   32.7387 C   0  0  0  0  0  0  0  0  0  0  0  0
   46.4814   59.8053   32.3068 C   0  0  0  0  0  0  0  0  0  0  0  0
   46.5143   61.2021   31.8718 N   0  0  0  0  0  0  0  0  0  0  0  0
   49.0636   59.6014   32.8400 N   0  0  0  0  0  0  0  0  0  0  0  0
   49.8499   58.5277   33.3200 C   0  0  0  0  0  0  0  0  0  0  0  0
   49.0034   57.4001   33.5248 N   0  0  0  0  0  0  0  0  0  0  0  0
  2  1  1  6  0  0  0
  2  3  1  0  0  0  0
  2  5  1  0  0  0  0
  3  4  1  0  0  0  0
  3 17  1  0  0  0  0
  5  6  1  0  0  0  0
  7  6  1  6  0  0  0
  7  8  1  0  0  0  0
  7  9  1  0  0  0  0
 10  9  1  6  0  0  0
 10 11  1  0  0  0  0
 10 12  1  0  0  0  0
 11 16  1  0  0  0  0
 12 13  1  1  0  0  0
 12 14  1  0  0  0  0
 14 15  1  1  0  0  0
 14 16  1  0  0  0  0
 16 27  1  6  0  0  0
 18 19  2  0  0  0  0
 18 23  1  0  0  0  0
 19 20  1  0  0  0  0
 20 21  2  0  0  0  0
 21 22  1  0  0  0  0
 21 27  1  0  0  0  0
 22 23  2  0  0  0  0
 22 25  1  0  0  0  0
 23 24  1  0  0  0  0
 25 26  2  0  0  0  0
 26 27  1  0  0  0  0
M  END
>  <CHROM.1>
157.17072370,-58.38694558,-68.97374297,63.74523329,-168.91019751,-55.95045710
82.60876161,48.12997112,55.49957258,31.63507756,0.98014975,1.27450371,-1.77408346

>  <Name>
ligand

>  <RI>
0

>  <Rbt.Current_Directory>
/home/itssahil/PROJECTS/Mol_Feturizer/New_Systems/rnas/3GX2

>  <Rbt.Executable>
rbdock ($Id: //depot/dev/client3/rdock/2013.1/src/exe/rbdock.cxx#4 $)

>  <Rbt.Library>
libRbt.so (2013.1, Build901 2013/11/27)

>  <Rbt.Parameter_File>
/export/apps/rDock/src/rDock_2013.1_src/data/scripts/dock_solv.prm

>  <Rbt.Receptor>
prm/pocket_docking_5.prm

>  <SCORE>
-14.5162

>  <SCORE.INTER>
-11.9535

>  <SCORE.INTER.CONST>
1

>  <SCORE.INTER.POLAR>
0

>  <SCORE.INTER.ROT>
7

>  <SCORE.INTER.SOLV>
15.6102

>  <SCORE.INTER.VDW>
-21.4391

>  <SCORE.INTER.norm>
-0.442722

>  <SCORE.INTRA>
-2.56791

>  <SCORE.INTRA.DIHEDRAL>
-8.23623

>  <SCORE.INTRA.DIHEDRAL.0>
13.9704

>  <SCORE.INTRA.POLAR>
0

>  <SCORE.INTRA.POLAR.0>
0

>  <SCORE.INTRA.REPUL>
0

>  <SCORE.INTRA.REPUL.0>
0

>  <SCORE.INTRA.SOLV>
4.24664

>  <SCORE.INTRA.SOLV.lig_0>
-70.9758

>  <SCORE.INTRA.VDW>
-0.573116

>  <SCORE.INTRA.VDW.0>
-2.70686

>  <SCORE.INTRA.norm>
-0.0951079

>  <SCORE.RESTR>
0.00523203

>  <SCORE.RESTR.CAVITY>
0.00523203

>  <SCORE.RESTR.norm>
0.000193779

>  <SCORE.SYSTEM>
0

>  <SCORE.SYSTEM.CONST>
0

>  <SCORE.SYSTEM.DIHEDRAL>
0

>  <SCORE.SYSTEM.SOLV>
0

>  <SCORE.SYSTEM.norm>
0

>  <SCORE.heavy>
27

>  <SCORE.norm>
-0.537636

>  <RMSD>
2.766

$$$$
ligand
 OpenBabel11021811473D
libRbt.so/2013.1/901 2013/11/27
 27 29  0  0  0  0  0  0  0  0999 V2000
   48.8895   52.7968   26.4899 N   0  0  0  0  0  0  0  0  0  0  0  0
   49.0204   54.0467   27.2354 C   0  0  2  0  0  0  0  0  0  0  0  0
   48.3071   55.2352   26.5875 C   0  0  0  0  0  0  0  0  0  0  0  0
   47.8706   56.0880   27.2868 O   0  0  0  0  0  0  0  0  0  0  0  0
   50.4587   54.3800   27.6843 C   0  0  0  0  0  0  0  0  0  0  0  0
   50.7170   55.6545   28.5352 C   0  0  0  0  0  0  0  0  0  0  0  0
   49.8153   55.8231   29.7870 C   0  0  2  0  0  0  0  0  0  0  0  0
   49.8617   57.1748   30.3443 N   0  0  0  0  0  0  0  0  0  0  0  0
   50.0721   54.7124   30.8517 C   0  0  0  0  0  0  0  0  0  0  0  0
   49.1076   54.6181   32.0818 C   0  0  1  0  0  0  0  0  0  0  0  0
   48.8821   55.8045   32.8996 O   0  0  0  0  0  0  0  0  0  0  0  0
   47.6845   54.0526   31.8159 C   0  0  1  0  0  0  0  0  0  0  0  0
   47.5723   52.6758   31.4326 O   0  0  0  0  0  0  0  0  0  0  0  0
   46.8052   54.5920   32.9863 C   0  0  1  0  0  0  0  0  0  0  0  0
   46.3554   53.6734   33.9533 O   0  0  0  0  0  0  0  0  0  0  0  0
   47.5791   55.8312   33.4468 C   0  0  2  0  0  0  0  0  0  0  0  0
   48.5964   55.5390   25.2422 O   0  0  0  0  0  0  0  0  0  0  0  0
   48.0662   60.9954   31.8402 N   0  0  0  0  0  0  0  0  0  0  0  0
   49.0943   60.0717   32.0605 C   0  0  0  0  0  0  0  0  0  0  0  0
   48.7767   58.7133   32.4951 N   0  0  0  0  0  0  0  0  0  0  0  0
   47.4730   58.3403   32.6862 C   0  0  0  0  0  0  0  0  0  0  0  0
   46.4444   59.2767   32.4640 C   0  0  0  0  0  0  0  0  0  0  0  0
   46.7618   60.6305   32.0316 C   0  0  0  0  0  0  0  0  0  0  0  0
   45.6945   61.6043   31.7994 N   0  0  0  0  0  0  0  0  0  0  0  0
   45.1854   58.6280   32.7379 N   0  0  0  0  0  0  0  0  0  0  0  0
   45.4625   57.2968   33.1287 C   0  0  0  0  0  0  0  0  0  0  0  0
   46.8731   57.0988   33.1010 N   0  0  0  0  0  0  0  0  0  0  0  0
  2  1  1  6  0  0  0
  2  3  1  0  0  0  0
  2  5  1  0  0  0  0
  3  4  1  0  0  0  0
  3 17  1  0  0  0  0
  5  6  1  0  0  0  0
  7  6  1  6  0  0  0
  7  8  1  0  0  0  0
  7  9  1  0  0  0  0
 10  9  1  6  0  0  0
 10 11  1  0  0  0  0
 10 12  1  0  0  0  0
 11 16  1  0  0  0  0
 12 13  1  1  0  0  0
 12 14  1  0  0  0  0
 14 15  1  1  0  0  0
 14 16  1  0  0  0  0
 16 27  1  6  0  0  0
 18 19  2  0  0  0  0
 18 23  1  0  0  0  0
 19 20  1  0  0  0  0
 20 21  2  0  0  0  0
 21 22  1  0  0  0  0
 21 27  1  0  0  0  0
 22 23  2  0  0  0  0
 22 25  1  0  0  0  0
 23 24  1  0  0  0  0
 25 26  2  0  0  0  0
 26 27  1  0  0  0  0
M  END
>  <CHROM.1>
149.09610553,-177.51697344,50.71500102,-165.31518289,-171.49539049,-53.69701526
-20.29868083,48.06977563,56.40699103,30.79504252,-0.38316394,1.22439333,-0.32065730

>  <Name>
ligand

>  <RI>
0

>  <Rbt.Current_Directory>
/home/itssahil/PROJECTS/Mol_Feturizer/New_Systems/rnas/3GX2

>  <Rbt.Executable>
rbdock ($Id: //depot/dev/client3/rdock/2013.1/src/exe/rbdock.cxx#4 $)

>  <Rbt.Library>
libRbt.so (2013.1, Build901 2013/11/27)

>  <Rbt.Parameter_File>
/export/apps/rDock/src/rDock_2013.1_src/data/scripts/dock_solv.prm

>  <Rbt.Receptor>
prm/pocket_docking_3.prm

>  <SCORE>
-9.58519

>  <SCORE.INTER>
-6.98764

>  <SCORE.INTER.CONST>
1

>  <SCORE.INTER.POLAR>
0

>  <SCORE.INTER.ROT>
7

>  <SCORE.INTER.SOLV>
18.5242

>  <SCORE.INTER.VDW>
-19.0998

>  <SCORE.INTER.norm>
-0.258801

>  <SCORE.INTRA>
-2.59755

>  <SCORE.INTRA.DIHEDRAL>
-7.55902

>  <SCORE.INTRA.DIHEDRAL.0>
13.9704

>  <SCORE.INTRA.POLAR>
0

>  <SCORE.INTRA.POLAR.0>
0

>  <SCORE.INTRA.REPUL>
0

>  <SCORE.INTRA.REPUL.0>
0

>  <SCORE.INTRA.SOLV>
3.09344

>  <SCORE.INTRA.SOLV.lig_0>
-70.9758

>  <SCORE.INTRA.VDW>
-0.364762

>  <SCORE.INTRA.VDW.0>
-2.70686

>  <SCORE.INTRA.norm>
-0.0962056

>  <SCORE.RESTR>
0

>  <SCORE.RESTR.CAVITY>
0

>  <SCORE.RESTR.norm>
0

>  <SCORE.SYSTEM>
0

>  <SCORE.SYSTEM.CONST>
0

>  <SCORE.SYSTEM.DIHEDRAL>
0

>  <SCORE.SYSTEM.SOLV>
0

>  <SCORE.SYSTEM.norm>
0

>  <SCORE.heavy>
27

>  <SCORE.norm>
-0.355007

>  <RMSD>
2.889

$$$$
ligand
 OpenBabel11021811473D
libRbt.so/2013.1/901 2013/11/27
 27 29  0  0  0  0  0  0  0  0999 V2000
   50.1808   52.9717   29.4886 N   0  0  0  0  0  0  0  0  0  0  0  0
   49.1644   52.3100   28.6737 C   0  0  2  0  0  0  0  0  0  0  0  0
   49.6462   51.9181   27.2753 C   0  0  0  0  0  0  0  0  0  0  0  0
   50.7970   51.6798   27.1152 O   0  0  0  0  0  0  0  0  0  0  0  0
   47.7913   53.0140   28.6617 C   0  0  0  0  0  0  0  0  0  0  0  0
   46.9612   53.0913   29.9732 C   0  0  0  0  0  0  0  0  0  0  0  0
   47.5044   54.0588   31.0583 C   0  0  2  0  0  0  0  0  0  0  0  0
   47.8635   55.3717   30.5223 N   0  0  0  0  0  0  0  0  0  0  0  0
   48.6417   53.4120   31.9078 C   0  0  0  0  0  0  0  0  0  0  0  0
   49.2041   54.2076   33.1338 C   0  0  1  0  0  0  0  0  0  0  0  0
   49.9187   55.4576   32.9016 O   0  0  0  0  0  0  0  0  0  0  0  0
   48.2021   54.5385   34.2750 C   0  0  1  0  0  0  0  0  0  0  0  0
   47.6710   53.4463   35.0368 O   0  0  0  0  0  0  0  0  0  0  0  0
   48.8232   55.7587   35.0230 C   0  0  1  0  0  0  0  0  0  0  0  0
   49.3306   55.5513   36.3193 O   0  0  0  0  0  0  0  0  0  0  0  0
   49.7379   56.3761   33.9606 C   0  0  2  0  0  0  0  0  0  0  0  0
   48.7081   51.3895   26.3663 O   0  0  0  0  0  0  0  0  0  0  0  0
   45.4186   59.1797   32.2371 N   0  0  0  0  0  0  0  0  0  0  0  0
   45.4564   57.8431   32.6504 C   0  0  0  0  0  0  0  0  0  0  0  0
   46.7177   57.2473   33.0854 N   0  0  0  0  0  0  0  0  0  0  0  0
   47.8647   57.9952   33.0915 C   0  0  0  0  0  0  0  0  0  0  0  0
   47.8182   59.3392   32.6722 C   0  0  0  0  0  0  0  0  0  0  0  0
   46.5610   59.9320   32.2381 C   0  0  0  0  0  0  0  0  0  0  0  0
   46.5106   61.3283   31.8031 N   0  0  0  0  0  0  0  0  0  0  0  0
   49.1499   59.8840   32.7759 N   0  0  0  0  0  0  0  0  0  0  0  0
   49.9985   58.8595   33.2574 C   0  0  0  0  0  0  0  0  0  0  0  0
   49.2211   57.6829   33.4607 N   0  0  0  0  0  0  0  0  0  0  0  0
  2  1  1  6  0  0  0
  2  3  1  0  0  0  0
  2  5  1  0  0  0  0
  3  4  1  0  0  0  0
  3 17  1  0  0  0  0
  5  6  1  0  0  0  0
  7  6  1  6  0  0  0
  7  8  1  0  0  0  0
  7  9  1  0  0  0  0
 10  9  1  6  0  0  0
 10 11  1  0  0  0  0
 10 12  1  0  0  0  0
 11 16  1  0  0  0  0
 12 13  1  1  0  0  0
 12 14  1  0  0  0  0
 14 15  1  1  0  0  0
 14 16  1  0  0  0  0
 16 27  1  6  0  0  0
 18 19  2  0  0  0  0
 18 23  1  0  0  0  0
 19 20  1  0  0  0  0
 20 21  2  0  0  0  0
 21 22  1  0  0  0  0
 21 27  1  0  0  0  0
 22 23  2  0  0  0  0
 22 25  1  0  0  0  0
 23 24  1  0  0  0  0
 25 26  2  0  0  0  0
 26 27  1  0  0  0  0
M  END
>  <CHROM.1>
28.53339185,-65.65376341,71.73922395,47.12395657,-174.26666661,-65.58278296
78.43803837,48.36444271,55.58398467,31.77820446,-1.08393092,-1.19230208,1.13995963

>  <Name>
ligand

>  <RI>
0

>  <Rbt.Current_Directory>
/home/itssahil/PROJECTS/Mol_Feturizer/New_Systems/rnas/3GX2

>  <Rbt.Executable>
rbdock ($Id: //depot/dev/client3/rdock/2013.1/src/exe/rbdock.cxx#4 $)

>  <Rbt.Library>
libRbt.so (2013.1, Build901 2013/11/27)

>  <Rbt.Parameter_File>
/export/apps/rDock/src/rDock_2013.1_src/data/scripts/dock_solv.prm

>  <Rbt.Receptor>
prm/pocket_docking_6.prm

>  <SCORE>
-13.5302

>  <SCORE.INTER>
-12.6341

>  <SCORE.INTER.CONST>
1

>  <SCORE.INTER.POLAR>
0

>  <SCORE.INTER.ROT>
7

>  <SCORE.INTER.SOLV>
19.5196

>  <SCORE.INTER.VDW>
-23.1959

>  <SCORE.INTER.norm>
-0.467929

>  <SCORE.INTRA>
-0.896129

>  <SCORE.INTRA.DIHEDRAL>
-7.49778

>  <SCORE.INTRA.DIHEDRAL.0>
13.9704

>  <SCORE.INTRA.POLAR>
0

>  <SCORE.INTRA.POLAR.0>
0

>  <SCORE.INTRA.REPUL>
0.0147697

>  <SCORE.INTRA.REPUL.0>
0

>  <SCORE.INTRA.SOLV>
6.57151

>  <SCORE.INTRA.SOLV.lig_0>
-70.9758

>  <SCORE.INTRA.VDW>
-0.506843

>  <SCORE.INTRA.VDW.0>
-2.70686

>  <SCORE.INTRA.norm>
-0.03319

>  <SCORE.RESTR>
0

>  <SCORE.RESTR.CAVITY>
0

>  <SCORE.RESTR.norm>
0

>  <SCORE.SYSTEM>
0

>  <SCORE.SYSTEM.CONST>
0

>  <SCORE.SYSTEM.DIHEDRAL>
0

>  <SCORE.SYSTEM.SOLV>
0

>  <SCORE.SYSTEM.norm>
0

>  <SCORE.heavy>
27

>  <SCORE.norm>
-0.501119

>  <RMSD>
2.890

$$$$
ligand
 OpenBabel11021811473D
libRbt.so/2013.1/901 2013/11/27
 27 29  0  0  0  0  0  0  0  0999 V2000
   48.5514   53.5228   26.6342 N   0  0  0  0  0  0  0  0  0  0  0  0
   49.6359   52.7949   27.2891 C   0  0  2  0  0  0  0  0  0  0  0  0
   50.6633   52.2053   26.3205 C   0  0  0  0  0  0  0  0  0  0  0  0
   51.7976   52.1433   26.6614 O   0  0  0  0  0  0  0  0  0  0  0  0
   49.1770   51.7887   28.3652 C   0  0  0  0  0  0  0  0  0  0  0  0
   48.3733   52.2981   29.5939 C   0  0  0  0  0  0  0  0  0  0  0  0
   49.1043   53.3264   30.4978 C   0  0  2  0  0  0  0  0  0  0  0  0
   50.4476   52.8931   30.8820 N   0  0  0  0  0  0  0  0  0  0  0  0
   48.2317   53.7670   31.7134 C   0  0  0  0  0  0  0  0  0  0  0  0
   48.9181   54.5535   32.8807 C   0  0  1  0  0  0  0  0  0  0  0  0
   49.6617   55.7705   32.5758 O   0  0  0  0  0  0  0  0  0  0  0  0
   48.0209   54.9384   34.0902 C   0  0  1  0  0  0  0  0  0  0  0  0
   47.5072   53.8779   34.9066 O   0  0  0  0  0  0  0  0  0  0  0  0
   48.7457   56.1411   34.7701 C   0  0  1  0  0  0  0  0  0  0  0  0
   49.3429   55.9287   36.0267 O   0  0  0  0  0  0  0  0  0  0  0  0
   49.5997   56.7081   33.6316 C   0  0  2  0  0  0  0  0  0  0  0  0
   50.2087   51.3399   25.3055 O   0  0  0  0  0  0  0  0  0  0  0  0
   45.2806   59.6499   32.1554 N   0  0  0  0  0  0  0  0  0  0  0  0
   45.2980   58.3156   32.5774 C   0  0  0  0  0  0  0  0  0  0  0  0
   46.5626   57.6788   32.9384 N   0  0  0  0  0  0  0  0  0  0  0  0
   47.7329   58.3861   32.8664 C   0  0  0  0  0  0  0  0  0  0  0  0
   47.7068   59.7280   32.4389 C   0  0  0  0  0  0  0  0  0  0  0  0
   46.4462   60.3617   32.0786 C   0  0  0  0  0  0  0  0  0  0  0  0
   46.4170   61.7559   31.6352 N   0  0  0  0  0  0  0  0  0  0  0  0
   49.0604   60.2264   32.4547 N   0  0  0  0  0  0  0  0  0  0  0  0
   49.9015   59.1761   32.8915 C   0  0  0  0  0  0  0  0  0  0  0  0
   49.0981   58.0289   33.1533 N   0  0  0  0  0  0  0  0  0  0  0  0
  2  1  1  6  0  0  0
  2  3  1  0  0  0  0
  2  5  1  0  0  0  0
  3  4  1  0  0  0  0
  3 17  1  0  0  0  0
  5  6  1  0  0  0  0
  7  6  1  1  0  0  0
  7  8  1  0  0  0  0
  7  9  1  0  0  0  0
 10  9  1  6  0  0  0
 10 11  1  0  0  0  0
 10 12  1  0  0  0  0
 11 16  1  0  0  0  0
 12 13  1  1  0  0  0
 12 14  1  0  0  0  0
 14 15  1  1  0  0  0
 14 16  1  0  0  0  0
 16 27  1  6  0  0  0
 18 19  2  0  0  0  0
 18 23  1  0  0  0  0
 19 20  1  0  0  0  0
 20 21  2  0  0  0  0
 21 22  1  0  0  0  0
 21 27  1  0  0  0  0
 22 23  2  0  0  0  0
 22 25  1  0  0  0  0
 23 24  1  0  0  0  0
 25 26  2  0  0  0  0
 26 27  1  0  0  0  0
M  END
>  <CHROM.1>
146.65373326,-59.85602931,-61.09282725,-50.01153422,167.09423818,54.57346682
77.49619153,48.62273189,55.70795090,31.34340094,0.64299299,1.22704606,-1.51900657

>  <Name>
ligand

>  <RI>
0

>  <Rbt.Current_Directory>
/home/itssahil/PROJECTS/Mol_Feturizer/New_Systems/rnas/3GX2

>  <Rbt.Executable>
rbdock ($Id: //depot/dev/client3/rdock/2013.1/src/exe/rbdock.cxx#4 $)

>  <Rbt.Library>
libRbt.so (2013.1, Build901 2013/11/27)

>  <Rbt.Parameter_File>
/export/apps/rDock/src/rDock_2013.1_src/data/scripts/dock_solv.prm

>  <Rbt.Receptor>
prm/pocket_docking_7.prm

>  <SCORE>
-15.6281

>  <SCORE.INTER>
-12.5784

>  <SCORE.INTER.CONST>
1

>  <SCORE.INTER.POLAR>
0

>  <SCORE.INTER.ROT>
7

>  <SCORE.INTER.SOLV>
22.9991

>  <SCORE.INTER.VDW>
-24.3186

>  <SCORE.INTER.norm>
-0.465866

>  <SCORE.INTRA>
-3.04972

>  <SCORE.INTRA.DIHEDRAL>
-8.08512

>  <SCORE.INTRA.DIHEDRAL.0>
13.9704

>  <SCORE.INTRA.POLAR>
0

>  <SCORE.INTRA.POLAR.0>
0

>  <SCORE.INTRA.REPUL>
0

>  <SCORE.INTRA.REPUL.0>
0

>  <SCORE.INTRA.SOLV>
2.32969

>  <SCORE.INTRA.SOLV.lig_0>
-70.9758

>  <SCORE.INTRA.VDW>
-0.172007

>  <SCORE.INTRA.VDW.0>
-2.70686

>  <SCORE.INTRA.norm>
-0.112953

>  <SCORE.RESTR>
0

>  <SCORE.RESTR.CAVITY>
0

>  <SCORE.RESTR.norm>
0

>  <SCORE.SYSTEM>
0

>  <SCORE.SYSTEM.CONST>
0

>  <SCORE.SYSTEM.DIHEDRAL>
0

>  <SCORE.SYSTEM.SOLV>
0

>  <SCORE.SYSTEM.norm>
0

>  <SCORE.heavy>
27

>  <SCORE.norm>
-0.578818

>  <RMSD>
2.911

$$$$
ligand
 OpenBabel11021811473D
libRbt.so/2013.1/901 2013/11/27
 27 29  0  0  0  0  0  0  0  0999 V2000
   43.9513   52.1036   28.9014 N   0  0  0  0  0  0  0  0  0  0  0  0
   44.8920   52.9857   28.2143 C   0  0  2  0  0  0  0  0  0  0  0  0
   45.7033   52.2954   27.1159 C   0  0  0  0  0  0  0  0  0  0  0  0
   45.1453   51.9471   26.1289 O   0  0  0  0  0  0  0  0  0  0  0  0
   45.7609   53.8526   29.1494 C   0  0  0  0  0  0  0  0  0  0  0  0
   46.7521   53.1631   30.1278 C   0  0  0  0  0  0  0  0  0  0  0  0
   47.4733   54.1034   31.1299 C   0  0  2  0  0  0  0  0  0  0  0  0
   48.1894   55.1959   30.4712 N   0  0  0  0  0  0  0  0  0  0  0  0
   48.3578   53.3154   32.1448 C   0  0  0  0  0  0  0  0  0  0  0  0
   49.0231   54.1013   33.3247 C   0  0  1  0  0  0  0  0  0  0  0  0
   49.8080   55.2946   33.0295 O   0  0  0  0  0  0  0  0  0  0  0  0
   48.0944   54.5265   34.4964 C   0  0  1  0  0  0  0  0  0  0  0  0
   47.5253   53.4914   35.3087 O   0  0  0  0  0  0  0  0  0  0  0  0
   48.8258   55.7203   35.1848 C   0  0  1  0  0  0  0  0  0  0  0  0
   49.3731   55.5112   36.4646 O   0  0  0  0  0  0  0  0  0  0  0  0
   49.7333   56.2488   34.0696 C   0  0  2  0  0  0  0  0  0  0  0  0
   47.0943   52.5164   27.0701 O   0  0  0  0  0  0  0  0  0  0  0  0
   45.5803   59.2181   32.2195 N   0  0  0  0  0  0  0  0  0  0  0  0
   45.5536   57.8810   32.6323 C   0  0  0  0  0  0  0  0  0  0  0  0
   46.7771   57.2367   33.1046 N   0  0  0  0  0  0  0  0  0  0  0  0
   47.9516   57.9395   33.1460 C   0  0  0  0  0  0  0  0  0  0  0  0
   47.9701   59.2841   32.7270 C   0  0  0  0  0  0  0  0  0  0  0  0
   46.7506   59.9254   32.2558 C   0  0  0  0  0  0  0  0  0  0  0  0
   46.7676   61.3226   31.8209 N   0  0  0  0  0  0  0  0  0  0  0  0
   49.3182   59.7767   32.8714 N   0  0  0  0  0  0  0  0  0  0  0  0
   50.1114   58.7201   33.3772 C   0  0  0  0  0  0  0  0  0  0  0  0
   49.2830   57.5747   33.5557 N   0  0  0  0  0  0  0  0  0  0  0  0
  2  1  1  1  0  0  0
  2  3  1  0  0  0  0
  2  5  1  0  0  0  0
  3  4  1  0  0  0  0
  3 17  1  0  0  0  0
  5  6  1  0  0  0  0
  7  6  1  6  0  0  0
  7  8  1  0  0  0  0
  7  9  1  0  0  0  0
 10  9  1  6  0  0  0
 10 11  1  0  0  0  0
 10 12  1  0  0  0  0
 11 16  1  0  0  0  0
 12 13  1  1  0  0  0
 12 14  1  0  0  0  0
 14 15  1  1  0  0  0
 14 16  1  0  0  0  0
 16 27  1  6  0  0  0
 18 19  2  0  0  0  0
 18 23  1  0  0  0  0
 19 20  1  0  0  0  0
 20 21  2  0  0  0  0
 21 22  1  0  0  0  0
 21 27  1  0  0  0  0
 22 23  2  0  0  0  0
 22 25  1  0  0  0  0
 23 24  1  0  0  0  0
 25 26  2  0  0  0  0
 26 27  1  0  0  0  0
M  END
>  <CHROM.1>
69.22628254,63.11230545,-173.85689944,-55.37048320,-173.10059656,-52.02539569
73.77445187,47.47218206,55.64275651,31.81872828,2.29130890,1.04833787,-2.96555230

>  <Name>
ligand

>  <RI>
0

>  <Rbt.Current_Directory>
/home/itssahil/PROJECTS/Mol_Feturizer/New_Systems/rnas/3GX2

>  <Rbt.Executable>
rbdock ($Id: //depot/dev/client3/rdock/2013.1/src/exe/rbdock.cxx#4 $)

>  <Rbt.Library>
libRbt.so (2013.1, Build901 2013/11/27)

>  <Rbt.Parameter_File>
/export/apps/rDock/src/rDock_2013.1_src/data/scripts/dock_solv.prm

>  <Rbt.Receptor>
prm/pocket_docking_6.prm

>  <SCORE>
-14.9481

>  <SCORE.INTER>
-11.4947

>  <SCORE.INTER.CONST>
1

>  <SCORE.INTER.POLAR>
0

>  <SCORE.INTER.ROT>
7

>  <SCORE.INTER.SOLV>
21.6277

>  <SCORE.INTER.VDW>
-23.139

>  <SCORE.INTER.norm>
-0.425729

>  <SCORE.INTRA>
-3.45339

>  <SCORE.INTRA.DIHEDRAL>
-8.87504

>  <SCORE.INTRA.DIHEDRAL.0>
13.9704

>  <SCORE.INTRA.POLAR>
0

>  <SCORE.INTRA.POLAR.0>
0

>  <SCORE.INTRA.REPUL>
0

>  <SCORE.INTRA.REPUL.0>
0

>  <SCORE.INTRA.SOLV>
2.52462

>  <SCORE.INTRA.SOLV.lig_0>
-70.9758

>  <SCORE.INTRA.VDW>
-0.278178

>  <SCORE.INTRA.VDW.0>
-2.70686

>  <SCORE.INTRA.norm>
-0.127903

>  <SCORE.RESTR>
0

>  <SCORE.RESTR.CAVITY>
0

>  <SCORE.RESTR.norm>
0

>  <SCORE.SYSTEM>
0

>  <SCORE.SYSTEM.CONST>
0

>  <SCORE.SYSTEM.DIHEDRAL>
0

>  <SCORE.SYSTEM.SOLV>
0

>  <SCORE.SYSTEM.norm>
0

>  <SCORE.heavy>
27

>  <SCORE.norm>
-0.553632

>  <RMSD>
3.006

$$$$
ligand
 OpenBabel11021811473D
libRbt.so/2013.1/901 2013/11/27
 27 29  0  0  0  0  0  0  0  0999 V2000
   51.7533   54.4093   25.8584 N   0  0  0  0  0  0  0  0  0  0  0  0
   51.8795   53.4229   26.9289 C   0  0  2  0  0  0  0  0  0  0  0  0
   51.3377   52.0386   26.5665 C   0  0  0  0  0  0  0  0  0  0  0  0
   52.0725   51.1088   26.6140 O   0  0  0  0  0  0  0  0  0  0  0  0
   51.4039   53.9117   28.3131 C   0  0  0  0  0  0  0  0  0  0  0  0
   49.9096   54.2856   28.5189 C   0  0  0  0  0  0  0  0  0  0  0  0
   49.5643   54.9606   29.8731 C   0  0  2  0  0  0  0  0  0  0  0  0
   50.2659   56.2287   30.0724 N   0  0  0  0  0  0  0  0  0  0  0  0
   49.7183   53.9797   31.0761 C   0  0  0  0  0  0  0  0  0  0  0  0
   49.3380   54.4869   32.5081 C   0  0  1  0  0  0  0  0  0  0  0  0
   49.8849   55.7535   32.9810 O   0  0  0  0  0  0  0  0  0  0  0  0
   47.8226   54.5676   32.8443 C   0  0  1  0  0  0  0  0  0  0  0  0
   47.0878   53.3391   32.9212 O   0  0  0  0  0  0  0  0  0  0  0  0
   47.7181   55.5928   34.0157 C   0  0  1  0  0  0  0  0  0  0  0  0
   47.3800   55.1061   35.2923 O   0  0  0  0  0  0  0  0  0  0  0  0
   48.9966   56.4212   33.8546 C   0  0  2  0  0  0  0  0  0  0  0  0
   49.9496   51.8155   26.6622 O   0  0  0  0  0  0  0  0  0  0  0  0
   45.2827   59.8911   31.9431 N   0  0  0  0  0  0  0  0  0  0  0  0
   45.0948   58.5479   32.2886 C   0  0  0  0  0  0  0  0  0  0  0  0
   46.2168   57.7577   32.7903 N   0  0  0  0  0  0  0  0  0  0  0  0
   47.4537   58.3294   32.9252 C   0  0  0  0  0  0  0  0  0  0  0  0
   47.6347   59.6813   32.5735 C   0  0  0  0  0  0  0  0  0  0  0  0
   46.5162   60.4680   32.0728 C   0  0  0  0  0  0  0  0  0  0  0  0
   46.7020   61.8729   31.7078 N   0  0  0  0  0  0  0  0  0  0  0  0
   49.0165   60.0215   32.8097 N   0  0  0  0  0  0  0  0  0  0  0  0
   49.6666   58.8658   33.3031 C   0  0  0  0  0  0  0  0  0  0  0  0
   48.7153   57.8082   33.3836 N   0  0  0  0  0  0  0  0  0  0  0  0
  2  1  1  6  0  0  0
  2  3  1  0  0  0  0
  2  5  1  0  0  0  0
  3  4  1  0  0  0  0
  3 17  1  0  0  0  0
  5  6  1  0  0  0  0
  7  6  1  6  0  0  0
  7  8  1  0  0  0  0
  7  9  1  0  0  0  0
 10  9  1  6  0  0  0
 10 11  1  0  0  0  0
 10 12  1  0  0  0  0
 11 16  1  0  0  0  0
 12 13  1  1  0  0  0
 12 14  1  0  0  0  0
 14 15  1  1  0  0  0
 14 16  1  0  0  0  0
 16 27  1  6  0  0  0
 18 19  2  0  0  0  0
 18 23  1  0  0  0  0
 19 20  1  0  0  0  0
 20 21  2  0  0  0  0
 21 22  1  0  0  0  0
 21 27  1  0  0  0  0
 22 23  2  0  0  0  0
 22 25  1  0  0  0  0
 23 24  1  0  0  0  0
 25 26  2  0  0  0  0
 26 27  1  0  0  0  0
M  END
>  <CHROM.1>
121.34229505,63.49882249,-171.37885984,60.90799968,-176.99747776,-50.18406034
114.32569204,48.87007313,55.97390852,31.09360666,-0.23630710,1.10703001,-0.55084544

>  <Name>
ligand

>  <RI>
0

>  <Rbt.Current_Directory>
/home/itssahil/PROJECTS/Mol_Feturizer/New_Systems/rnas/3GX2

>  <Rbt.Executable>
rbdock ($Id: //depot/dev/client3/rdock/2013.1/src/exe/rbdock.cxx#4 $)

>  <Rbt.Library>
libRbt.so (2013.1, Build901 2013/11/27)

>  <Rbt.Parameter_File>
/export/apps/rDock/src/rDock_2013.1_src/data/scripts/dock_solv.prm

>  <Rbt.Receptor>
prm/pocket_docking_6.prm

>  <SCORE>
-14.5542

>  <SCORE.INTER>
-11.8278

>  <SCORE.INTER.CONST>
1

>  <SCORE.INTER.POLAR>
0

>  <SCORE.INTER.ROT>
7

>  <SCORE.INTER.SOLV>
23.3286

>  <SCORE.INTER.VDW>
-23.9281

>  <SCORE.INTER.norm>
-0.438067

>  <SCORE.INTRA>
-2.72643

>  <SCORE.INTRA.DIHEDRAL>
-8.41305

>  <SCORE.INTRA.DIHEDRAL.0>
13.9704

>  <SCORE.INTRA.POLAR>
0

>  <SCORE.INTRA.POLAR.0>
0

>  <SCORE.INTRA.REPUL>
0

>  <SCORE.INTRA.REPUL.0>
0

>  <SCORE.INTRA.SOLV>
2.38274

>  <SCORE.INTRA.SOLV.lig_0>
-70.9758

>  <SCORE.INTRA.VDW>
0.288726

>  <SCORE.INTRA.VDW.0>
-2.70686

>  <SCORE.INTRA.norm>
-0.100979

>  <SCORE.RESTR>
0

>  <SCORE.RESTR.CAVITY>
0

>  <SCORE.RESTR.norm>
0

>  <SCORE.SYSTEM>
0

>  <SCORE.SYSTEM.CONST>
0

>  <SCORE.SYSTEM.DIHEDRAL>
0

>  <SCORE.SYSTEM.SOLV>
0

>  <SCORE.SYSTEM.norm>
0

>  <SCORE.heavy>
27

>  <SCORE.norm>
-0.539046

>  <RMSD>
3.041

$$$$
ligand
 OpenBabel11021811473D
libRbt.so/2013.1/901 2013/11/27
 27 29  0  0  0  0  0  0  0  0999 V2000
   49.1449   54.5972   26.8271 N   0  0  0  0  0  0  0  0  0  0  0  0
   49.1301   53.8346   28.0734 C   0  0  2  0  0  0  0  0  0  0  0  0
   50.4134   53.0432   28.3340 C   0  0  0  0  0  0  0  0  0  0  0  0
   51.1035   53.3606   29.2449 O   0  0  0  0  0  0  0  0  0  0  0  0
   47.8521   53.0006   28.3018 C   0  0  0  0  0  0  0  0  0  0  0  0
   47.6533   52.2627   29.6550 C   0  0  0  0  0  0  0  0  0  0  0  0
   47.6576   53.1621   30.9197 C   0  0  2  0  0  0  0  0  0  0  0  0
   46.9356   54.4197   30.7265 N   0  0  0  0  0  0  0  0  0  0  0  0
   49.0936   53.3624   31.4951 C   0  0  0  0  0  0  0  0  0  0  0  0
   49.2735   54.2719   32.7572 C   0  0  1  0  0  0  0  0  0  0  0  0
   49.3288   55.7193   32.5870 O   0  0  0  0  0  0  0  0  0  0  0  0
   48.2725   54.0555   33.9264 C   0  0  1  0  0  0  0  0  0  0  0  0
   48.3269   52.8088   34.6320 O   0  0  0  0  0  0  0  0  0  0  0  0
   48.2933   55.3901   34.7343 C   0  0  1  0  0  0  0  0  0  0  0  0
   48.8853   55.3810   36.0111 O   0  0  0  0  0  0  0  0  0  0  0  0
   48.7860   56.4047   33.6976 C   0  0  2  0  0  0  0  0  0  0  0  0
   50.5021   51.7271   27.8384 O   0  0  0  0  0  0  0  0  0  0  0  0
   47.5965   61.1976   31.4393 N   0  0  0  0  0  0  0  0  0  0  0  0
   48.8664   60.6524   31.6605 C   0  0  0  0  0  0  0  0  0  0  0  0
   48.9997   59.3388   32.2862 N   0  0  0  0  0  0  0  0  0  0  0  0
   47.8832   58.6374   32.6558 C   0  0  0  0  0  0  0  0  0  0  0  0
   46.6089   59.1942   32.4313 C   0  0  0  0  0  0  0  0  0  0  0  0
   46.4768   60.5038   31.8084 C   0  0  0  0  0  0  0  0  0  0  0  0
   45.1539   61.0834   31.5734 N   0  0  0  0  0  0  0  0  0  0  0  0
   45.6229   58.2569   32.9112 N   0  0  0  0  0  0  0  0  0  0  0  0
   46.3112   57.1342   33.4283 C   0  0  0  0  0  0  0  0  0  0  0  0
   47.7115   57.3500   33.2774 N   0  0  0  0  0  0  0  0  0  0  0  0
  2  1  1  6  0  0  0
  2  3  1  0  0  0  0
  2  5  1  0  0  0  0
  3  4  1  0  0  0  0
  3 17  1  0  0  0  0
  5  6  1  0  0  0  0
  7  6  1  6  0  0  0
  7  8  1  0  0  0  0
  7  9  1  0  0  0  0
 10  9  1  6  0  0  0
 10 11  1  0  0  0  0
 10 12  1  0  0  0  0
 11 16  1  0  0  0  0
 12 13  1  1  0  0  0
 12 14  1  0  0  0  0
 14 15  1  1  0  0  0
 14 16  1  0  0  0  0
 16 27  1  6  0  0  0
 18 19  2  0  0  0  0
 18 23  1  0  0  0  0
 19 20  1  0  0  0  0
 20 21  2  0  0  0  0
 21 22  1  0  0  0  0
 21 27  1  0  0  0  0
 22 23  2  0  0  0  0
 22 25  1  0  0  0  0
 23 24  1  0  0  0  0
 25 26  2  0  0  0  0
 26 27  1  0  0  0  0
M  END
>  <CHROM.1>
113.08814129,-173.76652163,58.64302782,40.71413385,178.73458334,-81.52341705
-76.80188244,48.27090712,55.81549122,31.58866619,0.16169113,1.27470745,-1.24665923

>  <Name>
ligand

>  <RI>
0

>  <Rbt.Current_Directory>
/home/itssahil/PROJECTS/Mol_Feturizer/New_Systems/rnas/3GX2

>  <Rbt.Executable>
rbdock ($Id: //depot/dev/client3/rdock/2013.1/src/exe/rbdock.cxx#4 $)

>  <Rbt.Library>
libRbt.so (2013.1, Build901 2013/11/27)

>  <Rbt.Parameter_File>
/export/apps/rDock/src/rDock_2013.1_src/data/scripts/dock_solv.prm

>  <Rbt.Receptor>
prm/pocket_docking_3.prm

>  <SCORE>
-13.3777

>  <SCORE.INTER>
-12.068

>  <SCORE.INTER.CONST>
1

>  <SCORE.INTER.POLAR>
0

>  <SCORE.INTER.ROT>
7

>  <SCORE.INTER.SOLV>
18.6773

>  <SCORE.INTER.VDW>
-22.5378

>  <SCORE.INTER.norm>
-0.446962

>  <SCORE.INTRA>
-1.31325

>  <SCORE.INTRA.DIHEDRAL>
-6.3039

>  <SCORE.INTRA.DIHEDRAL.0>
13.9704

>  <SCORE.INTRA.POLAR>
0

>  <SCORE.INTRA.POLAR.0>
0

>  <SCORE.INTRA.REPUL>
0

>  <SCORE.INTRA.REPUL.0>
0

>  <SCORE.INTRA.SOLV>
3.64867

>  <SCORE.INTRA.SOLV.lig_0>
-70.9758

>  <SCORE.INTRA.VDW>
0.014359

>  <SCORE.INTRA.VDW.0>
-2.70686

>  <SCORE.INTRA.norm>
-0.048639

>  <SCORE.RESTR>
0.00353689

>  <SCORE.RESTR.CAVITY>
0.00353689

>  <SCORE.RESTR.norm>
0.000130996

>  <SCORE.SYSTEM>
0

>  <SCORE.SYSTEM.CONST>
0

>  <SCORE.SYSTEM.DIHEDRAL>
0

>  <SCORE.SYSTEM.SOLV>
0

>  <SCORE.SYSTEM.norm>
0

>  <SCORE.heavy>
27

>  <SCORE.norm>
-0.49547

>  <RMSD>
3.058

$$$$
ligand
 OpenBabel11021811473D
libRbt.so/2013.1/901 2013/11/27
 27 29  0  0  0  0  0  0  0  0999 V2000
   49.0106   54.2381   26.7963 N   0  0  0  0  0  0  0  0  0  0  0  0
   48.9670   53.6100   28.1148 C   0  0  2  0  0  0  0  0  0  0  0  0
   50.2334   52.8302   28.4747 C   0  0  0  0  0  0  0  0  0  0  0  0
   50.6384   52.0177   27.7114 O   0  0  0  0  0  0  0  0  0  0  0  0
   47.6723   52.8242   28.4103 C   0  0  0  0  0  0  0  0  0  0  0  0
   47.4665   52.1917   29.8148 C   0  0  0  0  0  0  0  0  0  0  0  0
   47.5309   53.1760   31.0129 C   0  0  2  0  0  0  0  0  0  0  0  0
   46.8756   54.4541   30.7357 N   0  0  0  0  0  0  0  0  0  0  0  0
   48.9810   53.3381   31.5645 C   0  0  0  0  0  0  0  0  0  0  0  0
   49.2148   54.2913   32.7848 C   0  0  1  0  0  0  0  0  0  0  0  0
   49.2843   55.7304   32.5584 O   0  0  0  0  0  0  0  0  0  0  0  0
   48.2499   54.1337   33.9932 C   0  0  1  0  0  0  0  0  0  0  0  0
   48.3106   52.9135   34.7433 O   0  0  0  0  0  0  0  0  0  0  0  0
   48.3156   55.4970   34.7489 C   0  0  1  0  0  0  0  0  0  0  0  0
   48.9491   55.5269   36.0054 O   0  0  0  0  0  0  0  0  0  0  0  0
   48.7878   56.4648   33.6593 C   0  0  2  0  0  0  0  0  0  0  0  0
   51.1273   53.3955   29.4058 O   0  0  0  0  0  0  0  0  0  0  0  0
   47.5957   61.2387   31.3624 N   0  0  0  0  0  0  0  0  0  0  0  0
   48.8656   60.6913   31.5783 C   0  0  0  0  0  0  0  0  0  0  0  0
   48.9996   59.3836   32.2162 N   0  0  0  0  0  0  0  0  0  0  0  0
   47.8838   58.6901   32.6025 C   0  0  0  0  0  0  0  0  0  0  0  0
   46.6097   59.2491   32.3832 C   0  0  0  0  0  0  0  0  0  0  0  0
   46.4769   60.5528   31.7481 C   0  0  0  0  0  0  0  0  0  0  0  0
   45.1540   61.1347   31.5186 N   0  0  0  0  0  0  0  0  0  0  0  0
   45.6246   58.3203   32.8811 N   0  0  0  0  0  0  0  0  0  0  0  0
   46.3133   57.2005   33.4037 C   0  0  0  0  0  0  0  0  0  0  0  0
   47.7130   57.4096   33.2387 N   0  0  0  0  0  0  0  0  0  0  0  0
  2  1  1  6  0  0  0
  2  3  1  0  0  0  0
  2  5  1  0  0  0  0
  3  4  1  0  0  0  0
  3 17  1  0  0  0  0
  5  6  1  0  0  0  0
  7  6  1  6  0  0  0
  7  8  1  0  0  0  0
  7  9  1  0  0  0  0
 10  9  1  6  0  0  0
 10 11  1  0  0  0  0
 10 12  1  0  0  0  0
 11 16  1  0  0  0  0
 12 13  1  1  0  0  0
 12 14  1  0  0  0  0
 14 15  1  1  0  0  0
 14 16  1  0  0  0  0
 16 27  1  6  0  0  0
 18 19  2  0  0  0  0
 18 23  1  0  0  0  0
 19 20  1  0  0  0  0
 20 21  2  0  0  0  0
 21 22  1  0  0  0  0
 21 27  1  0  0  0  0
 22 23  2  0  0  0  0
 22 25  1  0  0  0  0
 23 24  1  0  0  0  0
 25 26  2  0  0  0  0
 26 27  1  0  0  0  0
M  END
>  <CHROM.1>
-52.14177925,-175.91674082,57.34505963,39.91045776,-179.52937576,-79.45113446
-78.98126264,48.23420414,55.83099675,31.59862499,0.21048224,1.28600053,-1.31129226

>  <Name>
ligand

>  <RI>
0

>  <Rbt.Current_Directory>
/home/itssahil/PROJECTS/Mol_Feturizer/New_Systems/rnas/3GX2

>  <Rbt.Executable>
rbdock ($Id: //depot/dev/client3/rdock/2013.1/src/exe/rbdock.cxx#4 $)

>  <Rbt.Library>
libRbt.so (2013.1, Build901 2013/11/27)

>  <Rbt.Parameter_File>
/export/apps/rDock/src/rDock_2013.1_src/data/scripts/dock_solv.prm

>  <Rbt.Receptor>
prm/pocket_docking_3.prm

>  <SCORE>
-13.6042

>  <SCORE.INTER>
-12.0825

>  <SCORE.INTER.CONST>
1

>  <SCORE.INTER.POLAR>
0

>  <SCORE.INTER.ROT>
7

>  <SCORE.INTER.SOLV>
18.9

>  <SCORE.INTER.VDW>
-22.6217

>  <SCORE.INTER.norm>
-0.4475

>  <SCORE.INTRA>
-1.55785

>  <SCORE.INTRA.DIHEDRAL>
-6.77435

>  <SCORE.INTRA.DIHEDRAL.0>
13.9704

>  <SCORE.INTRA.POLAR>
0

>  <SCORE.INTRA.POLAR.0>
0

>  <SCORE.INTRA.REPUL>
0

>  <SCORE.INTRA.REPUL.0>
0

>  <SCORE.INTRA.SOLV>
3.73706

>  <SCORE.INTRA.SOLV.lig_0>
-70.9758

>  <SCORE.INTRA.VDW>
-0.0392002

>  <SCORE.INTRA.VDW.0>
-2.70686

>  <SCORE.INTRA.norm>
-0.057698

>  <SCORE.RESTR>
0.0361061

>  <SCORE.RESTR.CAVITY>
0.0361061

>  <SCORE.RESTR.norm>
0.00133726

>  <SCORE.SYSTEM>
0

>  <SCORE.SYSTEM.CONST>
0

>  <SCORE.SYSTEM.DIHEDRAL>
0

>  <SCORE.SYSTEM.SOLV>
0

>  <SCORE.SYSTEM.norm>
0

>  <SCORE.heavy>
27

>  <SCORE.norm>
-0.503861

>  <RMSD>
3.102

$$$$
ligand
 OpenBabel11021811473D
libRbt.so/2013.1/901 2013/11/27
 27 29  0  0  0  0  0  0  0  0999 V2000
   43.8277   56.1902   30.4281 N   0  0  0  0  0  0  0  0  0  0  0  0
   44.9436   56.1547   29.4854 C   0  0  2  0  0  0  0  0  0  0  0  0
   44.8471   57.1952   28.3676 C   0  0  0  0  0  0  0  0  0  0  0  0
   45.6664   57.1878   27.5101 O   0  0  0  0  0  0  0  0  0  0  0  0
   45.3029   54.7464   28.9671 C   0  0  0  0  0  0  0  0  0  0  0  0
   45.8173   53.6731   29.9664 C   0  0  0  0  0  0  0  0  0  0  0  0
   47.2854   53.8424   30.4402 C   0  0  2  0  0  0  0  0  0  0  0  0
   48.2608   53.4537   29.4216 N   0  0  0  0  0  0  0  0  0  0  0  0
   47.5400   53.1651   31.8222 C   0  0  0  0  0  0  0  0  0  0  0  0
   46.9835   53.8611   33.1099 C   0  0  1  0  0  0  0  0  0  0  0  0
   47.4466   55.2019   33.4487 O   0  0  0  0  0  0  0  0  0  0  0  0
   45.4377   53.9351   33.2552 C   0  0  1  0  0  0  0  0  0  0  0  0
   44.7223   52.7051   33.4294 O   0  0  0  0  0  0  0  0  0  0  0  0
   45.1761   55.1152   34.2415 C   0  0  1  0  0  0  0  0  0  0  0  0
   44.6986   54.8074   35.5292 O   0  0  0  0  0  0  0  0  0  0  0  0
   46.4489   55.9570   34.1062 C   0  0  2  0  0  0  0  0  0  0  0  0
   43.5947   57.7866   28.1080 O   0  0  0  0  0  0  0  0  0  0  0  0
   48.6176   60.5014   32.0736 N   0  0  0  0  0  0  0  0  0  0  0  0
   49.2867   59.4488   32.7086 C   0  0  0  0  0  0  0  0  0  0  0  0
   48.5365   58.2943   33.1977 N   0  0  0  0  0  0  0  0  0  0  0  0
   47.1780   58.2386   33.0345 C   0  0  0  0  0  0  0  0  0  0  0  0
   46.5122   59.3031   32.3961 C   0  0  0  0  0  0  0  0  0  0  0  0
   47.2604   60.4537   31.9095 C   0  0  0  0  0  0  0  0  0  0  0  0
   46.5706   61.5601   31.2451 N   0  0  0  0  0  0  0  0  0  0  0  0
   45.1045   58.9897   32.3599 N   0  0  0  0  0  0  0  0  0  0  0  0
   44.9268   57.7319   32.9826 C   0  0  0  0  0  0  0  0  0  0  0  0
   46.1991   57.2497   33.4053 N   0  0  0  0  0  0  0  0  0  0  0  0
  2  1  1  6  0  0  0
  2  3  1  0  0  0  0
  2  5  1  0  0  0  0
  3  4  1  0  0  0  0
  3 17  1  0  0  0  0
  5  6  1  0  0  0  0
  7  6  1  6  0  0  0
  7  8  1  0  0  0  0
  7  9  1  0  0  0  0
 10  9  1  6  0  0  0
 10 11  1  0  0  0  0
 10 12  1  0  0  0  0
 11 16  1  0  0  0  0
 12 13  1  1  0  0  0
 12 14  1  0  0  0  0
 14 15  1  1  0  0  0
 14 16  1  0  0  0  0
 16 27  1  6  0  0  0
 18 19  2  0  0  0  0
 18 23  1  0  0  0  0
 19 20  1  0  0  0  0
 20 21  2  0  0  0  0
 21 22  1  0  0  0  0
 21 27  1  0  0  0  0
 22 23  2  0  0  0  0
 22 25  1  0  0  0  0
 23 24  1  0  0  0  0
 25 26  2  0  0  0  0
 26 27  1  0  0  0  0
M  END
>  <CHROM.1>
-175.50668976,-63.75728434,-75.60132739,-75.16399423,-74.53391689,-60.83945299
-52.66281958,46.18740381,56.47785530,31.70951584,2.11718387,1.24819256,2.54604625

>  <Name>
ligand

>  <RI>
0

>  <Rbt.Current_Directory>
/home/itssahil/PROJECTS/Mol_Feturizer/New_Systems/rnas/3GX2

>  <Rbt.Executable>
rbdock ($Id: //depot/dev/client3/rdock/2013.1/src/exe/rbdock.cxx#4 $)

>  <Rbt.Library>
libRbt.so (2013.1, Build901 2013/11/27)

>  <Rbt.Parameter_File>
/export/apps/rDock/src/rDock_2013.1_src/data/scripts/dock_solv.prm

>  <Rbt.Receptor>
prm/pocket_docking_5.prm

>  <SCORE>
-13.4877

>  <SCORE.INTER>
-10.4629

>  <SCORE.INTER.CONST>
1

>  <SCORE.INTER.POLAR>
0

>  <SCORE.INTER.ROT>
7

>  <SCORE.INTER.SOLV>
21.3652

>  <SCORE.INTER.VDW>
-22.3637

>  <SCORE.INTER.norm>
-0.387515

>  <SCORE.INTRA>
-3.02483

>  <SCORE.INTRA.DIHEDRAL>
-6.90287

>  <SCORE.INTRA.DIHEDRAL.0>
13.9704

>  <SCORE.INTRA.POLAR>
0

>  <SCORE.INTRA.POLAR.0>
0

>  <SCORE.INTRA.REPUL>
0

>  <SCORE.INTRA.REPUL.0>
0

>  <SCORE.INTRA.SOLV>
2.06712

>  <SCORE.INTRA.SOLV.lig_0>
-70.9758

>  <SCORE.INTRA.VDW>
-0.606959

>  <SCORE.INTRA.VDW.0>
-2.70686

>  <SCORE.INTRA.norm>
-0.112031

>  <SCORE.RESTR>
0

>  <SCORE.RESTR.CAVITY>
0

>  <SCORE.RESTR.norm>
0

>  <SCORE.SYSTEM>
0

>  <SCORE.SYSTEM.CONST>
0

>  <SCORE.SYSTEM.DIHEDRAL>
0

>  <SCORE.SYSTEM.SOLV>
0

>  <SCORE.SYSTEM.norm>
0

>  <SCORE.heavy>
27

>  <SCORE.norm>
-0.499546

>  <RMSD>
3.145

$$$$
ligand
 OpenBabel11021811473D
libRbt.so/2013.1/901 2013/11/27
 27 29  0  0  0  0  0  0  0  0999 V2000
   50.0037   54.0291   28.2781 N   0  0  0  0  0  0  0  0  0  0  0  0
   49.6607   52.6414   27.9753 C   0  0  2  0  0  0  0  0  0  0  0  0
   49.1974   52.4152   26.5346 C   0  0  0  0  0  0  0  0  0  0  0  0
   49.5921   51.4601   25.9525 O   0  0  0  0  0  0  0  0  0  0  0  0
   48.7441   51.9639   29.0154 C   0  0  0  0  0  0  0  0  0  0  0  0
   47.3446   52.5715   29.3108 C   0  0  0  0  0  0  0  0  0  0  0  0
   47.2940   53.6245   30.4497 C   0  0  2  0  0  0  0  0  0  0  0  0
   48.0316   54.8464   30.1285 N   0  0  0  0  0  0  0  0  0  0  0  0
   47.6874   53.0169   31.8315 C   0  0  0  0  0  0  0  0  0  0  0  0
   47.1434   53.7005   33.1312 C   0  0  1  0  0  0  0  0  0  0  0  0
   47.6019   55.0422   33.4728 O   0  0  0  0  0  0  0  0  0  0  0  0
   45.5993   53.7628   33.2976 C   0  0  1  0  0  0  0  0  0  0  0  0
   44.8946   52.5267   33.4730 O   0  0  0  0  0  0  0  0  0  0  0  0
   45.3428   54.9346   34.2952 C   0  0  1  0  0  0  0  0  0  0  0  0
   44.8848   54.6150   35.5871 O   0  0  0  0  0  0  0  0  0  0  0  0
   46.6079   55.7860   34.1485 C   0  0  2  0  0  0  0  0  0  0  0  0
   47.9982   53.0229   26.1124 O   0  0  0  0  0  0  0  0  0  0  0  0
   48.6900   60.4429   32.2871 N   0  0  0  0  0  0  0  0  0  0  0  0
   49.3704   59.4037   32.9319 C   0  0  0  0  0  0  0  0  0  0  0  0
   48.6437   58.2139   33.3692 N   0  0  0  0  0  0  0  0  0  0  0  0
   47.2962   58.1120   33.1476 C   0  0  0  0  0  0  0  0  0  0  0  0
   46.6187   59.1632   32.4997 C   0  0  0  0  0  0  0  0  0  0  0  0
   47.3435   60.3490   32.0649 C   0  0  0  0  0  0  0  0  0  0  0  0
   46.6416   61.4418   31.3907 N   0  0  0  0  0  0  0  0  0  0  0  0
   45.2264   58.7998   32.3985 N   0  0  0  0  0  0  0  0  0  0  0  0
   45.0694   57.5250   32.9917 C   0  0  0  0  0  0  0  0  0  0  0  0
   46.3400   57.0816   33.4597 N   0  0  0  0  0  0  0  0  0  0  0  0
  2  1  1  1  0  0  0
  2  3  1  0  0  0  0
  2  5  1  0  0  0  0
  3  4  1  0  0  0  0
  3 17  1  0  0  0  0
  5  6  1  0  0  0  0
  7  6  1  6  0  0  0
  7  8  1  0  0  0  0
  7  9  1  0  0  0  0
 10  9  1  6  0  0  0
 10 11  1  0  0  0  0
 10 12  1  0  0  0  0
 11 16  1  0  0  0  0
 12 13  1  1  0  0  0
 12 14  1  0  0  0  0
 14 15  1  1  0  0  0
 14 16  1  0  0  0  0
 16 27  1  6  0  0  0
 18 19  2  0  0  0  0
 18 23  1  0  0  0  0
 19 20  1  0  0  0  0
 20 21  2  0  0  0  0
 21 22  1  0  0  0  0
 21 27  1  0  0  0  0
 22 23  2  0  0  0  0
 22 25  1  0  0  0  0
 23 24  1  0  0  0  0
 25 26  2  0  0  0  0
 26 27  1  0  0  0  0
M  END
>  <CHROM.1>
137.73881982,59.30889488,-90.20100661,65.94932188,-154.81548343,-66.65975452
-56.32457454,47.36358463,55.45582795,31.41659816,-1.05798100,1.04625573,0.29091927

>  <Name>
ligand

>  <RI>
0

>  <Rbt.Current_Directory>
/home/itssahil/PROJECTS/Mol_Feturizer/New_Systems/rnas/3GX2

>  <Rbt.Executable>
rbdock ($Id: //depot/dev/client3/rdock/2013.1/src/exe/rbdock.cxx#4 $)

>  <Rbt.Library>
libRbt.so (2013.1, Build901 2013/11/27)

>  <Rbt.Parameter_File>
/export/apps/rDock/src/rDock_2013.1_src/data/scripts/dock_solv.prm

>  <Rbt.Receptor>
prm/pocket_docking_4.prm

>  <SCORE>
-11.2174

>  <SCORE.INTER>
-12.2293

>  <SCORE.INTER.CONST>
1

>  <SCORE.INTER.POLAR>
0

>  <SCORE.INTER.ROT>
7

>  <SCORE.INTER.SOLV>
16.6967

>  <SCORE.INTER.VDW>
-21.9851

>  <SCORE.INTER.norm>
-0.452937

>  <SCORE.INTRA>
0.996934

>  <SCORE.INTRA.DIHEDRAL>
-3.59468

>  <SCORE.INTRA.DIHEDRAL.0>
13.9704

>  <SCORE.INTRA.POLAR>
0

>  <SCORE.INTRA.POLAR.0>
0

>  <SCORE.INTRA.REPUL>
0

>  <SCORE.INTRA.REPUL.0>
0

>  <SCORE.INTRA.SOLV>
5.24333

>  <SCORE.INTRA.SOLV.lig_0>
-70.9758

>  <SCORE.INTRA.VDW>
0.17261

>  <SCORE.INTRA.VDW.0>
-2.70686

>  <SCORE.INTRA.norm>
0.0369235

>  <SCORE.RESTR>
0.0149569

>  <SCORE.RESTR.CAVITY>
0.0149569

>  <SCORE.RESTR.norm>
0.00055396

>  <SCORE.SYSTEM>
0

>  <SCORE.SYSTEM.CONST>
0

>  <SCORE.SYSTEM.DIHEDRAL>
0

>  <SCORE.SYSTEM.SOLV>
0

>  <SCORE.SYSTEM.norm>
0

>  <SCORE.heavy>
27

>  <SCORE.norm>
-0.41546

>  <RMSD>
3.441

$$$$
ligand
 OpenBabel11021811473D
libRbt.so/2013.1/901 2013/11/27
 27 29  0  0  0  0  0  0  0  0999 V2000
   47.0183   52.8811   26.2257 N   0  0  0  0  0  0  0  0  0  0  0  0
   47.0841   52.7067   27.6750 C   0  0  2  0  0  0  0  0  0  0  0  0
   45.8522   53.2242   28.4205 C   0  0  0  0  0  0  0  0  0  0  0  0
   45.3480   52.5294   29.2390 O   0  0  0  0  0  0  0  0  0  0  0  0
   48.4113   53.1613   28.3177 C   0  0  0  0  0  0  0  0  0  0  0  0
   48.6848   52.8403   29.8135 C   0  0  0  0  0  0  0  0  0  0  0  0
   47.9172   53.7138   30.8412 C   0  0  2  0  0  0  0  0  0  0  0  0
   48.2903   55.1269   30.7787 N   0  0  0  0  0  0  0  0  0  0  0  0
   47.9880   53.1248   32.2839 C   0  0  0  0  0  0  0  0  0  0  0  0
   47.1570   53.8175   33.4161 C   0  0  1  0  0  0  0  0  0  0  0  0
   47.4786   55.1887   33.7951 O   0  0  0  0  0  0  0  0  0  0  0  0
   45.6109   53.8105   33.2563 C   0  0  1  0  0  0  0  0  0  0  0  0
   44.9365   52.5475   33.3278 O   0  0  0  0  0  0  0  0  0  0  0  0
   45.1040   54.9961   34.1346 C   0  0  1  0  0  0  0  0  0  0  0  0
   44.3997   54.6911   35.3144 O   0  0  0  0  0  0  0  0  0  0  0  0
   46.3358   55.9026   34.2218 C   0  0  2  0  0  0  0  0  0  0  0  0
   45.6440   54.6163   28.4868 O   0  0  0  0  0  0  0  0  0  0  0  0
   48.7286   60.3378   32.1992 N   0  0  0  0  0  0  0  0  0  0  0  0
   49.3257   59.3106   32.9388 C   0  0  0  0  0  0  0  0  0  0  0  0
   48.5219   58.1839   33.4072 N   0  0  0  0  0  0  0  0  0  0  0  0
   47.1836   58.1293   33.1223 C   0  0  0  0  0  0  0  0  0  0  0  0
   46.5902   59.1682   32.3789 C   0  0  0  0  0  0  0  0  0  0  0  0
   47.3917   60.2912   31.9131 C   0  0  0  0  0  0  0  0  0  0  0  0
   46.7772   61.3709   31.1399 N   0  0  0  0  0  0  0  0  0  0  0  0
   45.1887   58.8623   32.2271 N   0  0  0  0  0  0  0  0  0  0  0  0
   44.9416   57.6348   32.8857 C   0  0  0  0  0  0  0  0  0  0  0  0
   46.1648   57.1642   33.4446 N   0  0  0  0  0  0  0  0  0  0  0  0
  2  1  1  6  0  0  0
  2  3  1  0  0  0  0
  2  5  1  0  0  0  0
  3  4  1  0  0  0  0
  3 17  1  0  0  0  0
  5  6  1  0  0  0  0
  7  6  1  6  0  0  0
  7  8  1  0  0  0  0
  7  9  1  0  0  0  0
 10  9  1  6  0  0  0
 10 11  1  0  0  0  0
 10 12  1  0  0  0  0
 11 16  1  0  0  0  0
 12 13  1  1  0  0  0
 12 14  1  0  0  0  0
 14 15  1  1  0  0  0
 14 16  1  0  0  0  0
 16 27  1  6  0  0  0
 18 19  2  0  0  0  0
 18 23  1  0  0  0  0
 19 20  1  0  0  0  0
 20 21  2  0  0  0  0
 21 22  1  0  0  0  0
 21 27  1  0  0  0  0
 22 23  2  0  0  0  0
 22 25  1  0  0  0  0
 23 24  1  0  0  0  0
 25 26  2  0  0  0  0
 26 27  1  0  0  0  0
M  END
>  <CHROM.1>
132.35360375,-171.21528044,-75.45024541,-63.92776143,-174.59332255,-63.94269023
-45.70030785,46.78397556,55.65070244,31.65680875,-1.66486321,1.20327068,0.65002258

>  <Name>
ligand

>  <RI>
0

>  <Rbt.Current_Directory>
/home/itssahil/PROJECTS/Mol_Feturizer/New_Systems/rnas/3GX2

>  <Rbt.Executable>
rbdock ($Id: //depot/dev/client3/rdock/2013.1/src/exe/rbdock.cxx#4 $)

>  <Rbt.Library>
libRbt.so (2013.1, Build901 2013/11/27)

>  <Rbt.Parameter_File>
/export/apps/rDock/src/rDock_2013.1_src/data/scripts/dock_solv.prm

>  <Rbt.Receptor>
prm/pocket_docking_4.prm

>  <SCORE>
-12.537

>  <SCORE.INTER>
-10.0675

>  <SCORE.INTER.CONST>
1

>  <SCORE.INTER.POLAR>
0

>  <SCORE.INTER.ROT>
7

>  <SCORE.INTER.SOLV>
18.1969

>  <SCORE.INTER.VDW>
-21.044

>  <SCORE.INTER.norm>
-0.372869

>  <SCORE.INTRA>
-2.50399

>  <SCORE.INTRA.DIHEDRAL>
-7.67529

>  <SCORE.INTRA.DIHEDRAL.0>
13.9704

>  <SCORE.INTRA.POLAR>
0

>  <SCORE.INTRA.POLAR.0>
0

>  <SCORE.INTRA.REPUL>
0

>  <SCORE.INTRA.REPUL.0>
0

>  <SCORE.INTRA.SOLV>
3.72182

>  <SCORE.INTRA.SOLV.lig_0>
-70.9758

>  <SCORE.INTRA.VDW>
-0.527253

>  <SCORE.INTRA.VDW.0>
-2.70686

>  <SCORE.INTRA.norm>
-0.0927404

>  <SCORE.RESTR>
0.0344304

>  <SCORE.RESTR.CAVITY>
0.0344304

>  <SCORE.RESTR.norm>
0.0012752

>  <SCORE.SYSTEM>
0

>  <SCORE.SYSTEM.CONST>
0

>  <SCORE.SYSTEM.DIHEDRAL>
0

>  <SCORE.SYSTEM.SOLV>
0

>  <SCORE.SYSTEM.norm>
0

>  <SCORE.heavy>
27

>  <SCORE.norm>
-0.464334

>  <RMSD>
3.445

$$$$
ligand
 OpenBabel11021811473D
libRbt.so/2013.1/901 2013/11/27
 27 29  0  0  0  0  0  0  0  0999 V2000
   44.4862   52.1817   28.3767 N   0  0  0  0  0  0  0  0  0  0  0  0
   45.4529   53.2749   28.4502 C   0  0  2  0  0  0  0  0  0  0  0  0
   45.9954   53.7182   27.0899 C   0  0  0  0  0  0  0  0  0  0  0  0
   46.0800   54.8790   26.8611 O   0  0  0  0  0  0  0  0  0  0  0  0
   46.5613   53.0832   29.5066 C   0  0  0  0  0  0  0  0  0  0  0  0
   47.2259   54.3313   30.1512 C   0  0  0  0  0  0  0  0  0  0  0  0
   48.4158   54.0438   31.1052 C   0  0  2  0  0  0  0  0  0  0  0  0
   49.5661   53.4553   30.4193 N   0  0  0  0  0  0  0  0  0  0  0  0
   47.9775   53.2388   32.3674 C   0  0  0  0  0  0  0  0  0  0  0  0
   47.0501   53.9398   33.4167 C   0  0  1  0  0  0  0  0  0  0  0  0
   47.3848   55.2836   33.8742 O   0  0  0  0  0  0  0  0  0  0  0  0
   45.5349   54.0103   33.0777 C   0  0  1  0  0  0  0  0  0  0  0  0
   44.8019   52.7792   33.0296 O   0  0  0  0  0  0  0  0  0  0  0  0
   44.9805   55.1947   33.9285 C   0  0  1  0  0  0  0  0  0  0  0  0
   44.1295   54.8921   35.0079 O   0  0  0  0  0  0  0  0  0  0  0  0
   46.2321   56.0392   34.1876 C   0  0  2  0  0  0  0  0  0  0  0  0
   46.8044   52.8203   26.3655 O   0  0  0  0  0  0  0  0  0  0  0  0
   49.1085   60.2599   32.3438 N   0  0  0  0  0  0  0  0  0  0  0  0
   49.5791   59.1635   33.0755 C   0  0  0  0  0  0  0  0  0  0  0  0
   48.6549   58.1115   33.4928 N   0  0  0  0  0  0  0  0  0  0  0  0
   47.3273   58.1947   33.1676 C   0  0  0  0  0  0  0  0  0  0  0  0
   46.8617   59.3025   32.4327 C   0  0  0  0  0  0  0  0  0  0  0  0
   47.7831   60.3509   32.0178 C   0  0  0  0  0  0  0  0  0  0  0  0
   47.3015   61.5020   31.2534 N   0  0  0  0  0  0  0  0  0  0  0  0
   45.4424   59.1391   32.2327 N   0  0  0  0  0  0  0  0  0  0  0  0
   45.0562   57.9280   32.8538 C   0  0  0  0  0  0  0  0  0  0  0  0
   46.2095   57.3277   33.4365 N   0  0  0  0  0  0  0  0  0  0  0  0
  2  1  1  6  0  0  0
  2  3  1  0  0  0  0
  2  5  1  0  0  0  0
  3  4  1  0  0  0  0
  3 17  1  0  0  0  0
  5  6  1  0  0  0  0
  7  6  1  6  0  0  0
  7  8  1  0  0  0  0
  7  9  1  0  0  0  0
 10  9  1  6  0  0  0
 10 11  1  0  0  0  0
 10 12  1  0  0  0  0
 11 16  1  0  0  0  0
 12 13  1  1  0  0  0
 12 14  1  0  0  0  0
 14 15  1  1  0  0  0
 14 16  1  0  0  0  0
 16 27  1  6  0  0  0
 18 19  2  0  0  0  0
 18 23  1  0  0  0  0
 19 20  1  0  0  0  0
 20 21  2  0  0  0  0
 21 22  1  0  0  0  0
 21 27  1  0  0  0  0
 22 23  2  0  0  0  0
 22 25  1  0  0  0  0
 23 24  1  0  0  0  0
 25 26  2  0  0  0  0
 26 27  1  0  0  0  0
M  END
>  <CHROM.1>
135.79155639,-152.13592495,-174.67570505,65.02918805,-67.95524610,-47.49128922
-39.86901203,46.71054791,55.76638170,31.56666779,2.02729577,-1.21094750,-2.08430177

>  <Name>
ligand

>  <RI>
0

>  <Rbt.Current_Directory>
/home/itssahil/PROJECTS/Mol_Feturizer/New_Systems/rnas/3GX2

>  <Rbt.Executable>
rbdock ($Id: //depot/dev/client3/rdock/2013.1/src/exe/rbdock.cxx#4 $)

>  <Rbt.Library>
libRbt.so (2013.1, Build901 2013/11/27)

>  <Rbt.Parameter_File>
/export/apps/rDock/src/rDock_2013.1_src/data/scripts/dock_solv.prm

>  <Rbt.Receptor>
prm/pocket_docking_5.prm

>  <SCORE>
-10.3919

>  <SCORE.INTER>
-7.42322

>  <SCORE.INTER.CONST>
1

>  <SCORE.INTER.POLAR>
0

>  <SCORE.INTER.ROT>
7

>  <SCORE.INTER.SOLV>
25.1612

>  <SCORE.INTER.VDW>
-21.6026

>  <SCORE.INTER.norm>
-0.274934

>  <SCORE.INTRA>
-2.96869

>  <SCORE.INTRA.DIHEDRAL>
-5.94664

>  <SCORE.INTRA.DIHEDRAL.0>
13.9704

>  <SCORE.INTRA.POLAR>
0

>  <SCORE.INTRA.POLAR.0>
0

>  <SCORE.INTRA.REPUL>
0

>  <SCORE.INTRA.REPUL.0>
0

>  <SCORE.INTRA.SOLV>
-0.127192

>  <SCORE.INTRA.SOLV.lig_0>
-70.9758

>  <SCORE.INTRA.VDW>
0.0682247

>  <SCORE.INTRA.VDW.0>
-2.70686

>  <SCORE.INTRA.norm>
-0.109951

>  <SCORE.RESTR>
0

>  <SCORE.RESTR.CAVITY>
0

>  <SCORE.RESTR.norm>
0

>  <SCORE.SYSTEM>
0

>  <SCORE.SYSTEM.CONST>
0

>  <SCORE.SYSTEM.DIHEDRAL>
0

>  <SCORE.SYSTEM.SOLV>
0

>  <SCORE.SYSTEM.norm>
0

>  <SCORE.heavy>
27

>  <SCORE.norm>
-0.384886

>  <RMSD>
3.471

$$$$
ligand
 OpenBabel11021811473D
libRbt.so/2013.1/901 2013/11/27
 27 29  0  0  0  0  0  0  0  0999 V2000
   51.1329   54.9695   25.6806 N   0  0  0  0  0  0  0  0  0  0  0  0
   49.6828   54.8950   25.8434 C   0  0  2  0  0  0  0  0  0  0  0  0
   48.9526   54.2852   24.6449 C   0  0  0  0  0  0  0  0  0  0  0  0
   47.7672   54.3167   24.6237 O   0  0  0  0  0  0  0  0  0  0  0  0
   49.0250   56.1955   26.3505 C   0  0  0  0  0  0  0  0  0  0  0  0
   49.5157   56.8310   27.6811 C   0  0  0  0  0  0  0  0  0  0  0  0
   49.5391   55.8850   28.9111 C   0  0  2  0  0  0  0  0  0  0  0  0
   48.3174   55.0911   29.0421 N   0  0  0  0  0  0  0  0  0  0  0  0
   49.9262   56.6345   30.2232 C   0  0  0  0  0  0  0  0  0  0  0  0
   49.0499   57.8508   30.6761 C   0  0  1  0  0  0  0  0  0  0  0  0
   47.6056   57.7973   30.4798 O   0  0  0  0  0  0  0  0  0  0  0  0
   49.2255   58.3346   32.1427 C   0  0  1  0  0  0  0  0  0  0  0  0
   50.4847   58.9130   32.5104 O   0  0  0  0  0  0  0  0  0  0  0  0
   47.9080   59.0986   32.4814 C   0  0  1  0  0  0  0  0  0  0  0  0
   47.9732   60.4969   32.6276 O   0  0  0  0  0  0  0  0  0  0  0  0
   46.9076   58.5048   31.4848 C   0  0  2  0  0  0  0  0  0  0  0  0
   49.6525   54.1539   23.4289 O   0  0  0  0  0  0  0  0  0  0  0  0
   45.9842   54.6200   35.1648 N   0  0  0  0  0  0  0  0  0  0  0  0
   47.2132   55.1986   34.8277 C   0  0  0  0  0  0  0  0  0  0  0  0
   47.2754   56.2400   33.8046 N   0  0  0  0  0  0  0  0  0  0  0  0
   46.1319   56.6532   33.1747 C   0  0  0  0  0  0  0  0  0  0  0  0
   44.8995   56.0643   33.5185 C   0  0  0  0  0  0  0  0  0  0  0  0
   44.8383   55.0260   34.5377 C   0  0  0  0  0  0  0  0  0  0  0  0
   43.5587   54.4137   34.8969 N   0  0  0  0  0  0  0  0  0  0  0  0
   43.8729   56.6770   32.7113 N   0  0  0  0  0  0  0  0  0  0  0  0
   44.4950   57.6361   31.8778 C   0  0  0  0  0  0  0  0  0  0  0  0
   45.8933   57.6377   32.1513 N   0  0  0  0  0  0  0  0  0  0  0  0
  2  1  1  6  0  0  0
  2  3  1  0  0  0  0
  2  5  1  0  0  0  0
  3  4  1  0  0  0  0
  3 17  1  0  0  0  0
  5  6  1  0  0  0  0
  7  6  1  6  0  0  0
  7  8  1  0  0  0  0
  7  9  1  0  0  0  0
 10  9  1  1  0  0  0
 10 11  1  0  0  0  0
 10 12  1  0  0  0  0
 11 16  1  0  0  0  0
 12 13  1  6  0  0  0
 12 14  1  0  0  0  0
 14 15  1  6  0  0  0
 14 16  1  0  0  0  0
 16 27  1  1  0  0  0
 18 19  2  0  0  0  0
 18 23  1  0  0  0  0
 19 20  1  0  0  0  0
 20 21  2  0  0  0  0
 21 22  1  0  0  0  0
 21 27  1  0  0  0  0
 22 23  2  0  0  0  0
 22 25  1  0  0  0  0
 23 24  1  0  0  0  0
 25 26  2  0  0  0  0
 26 27  1  0  0  0  0
M  END
>  <CHROM.1>
-171.88962253,-55.92278667,-52.92257760,-45.86061833,57.84777437,37.48349032
79.37745159,47.72572671,56.47772995,30.46406004,-1.02611019,0.72531441,0.99677659

>  <Name>
ligand

>  <RI>
0

>  <Rbt.Current_Directory>
/home/itssahil/PROJECTS/Mol_Feturizer/New_Systems/rnas/3GX2

>  <Rbt.Executable>
rbdock ($Id: //depot/dev/client3/rdock/2013.1/src/exe/rbdock.cxx#4 $)

>  <Rbt.Library>
libRbt.so (2013.1, Build901 2013/11/27)

>  <Rbt.Parameter_File>
/export/apps/rDock/src/rDock_2013.1_src/data/scripts/dock_solv.prm

>  <Rbt.Receptor>
prm/pocket_docking_5.prm

>  <SCORE>
-8.12418

>  <SCORE.INTER>
-6.37038

>  <SCORE.INTER.CONST>
1

>  <SCORE.INTER.POLAR>
0

>  <SCORE.INTER.ROT>
7

>  <SCORE.INTER.SOLV>
12.0961

>  <SCORE.INTER.VDW>
-16.5456

>  <SCORE.INTER.norm>
-0.23594

>  <SCORE.INTRA>
-1.7538

>  <SCORE.INTRA.DIHEDRAL>
-6.99056

>  <SCORE.INTRA.DIHEDRAL.0>
13.9704

>  <SCORE.INTRA.POLAR>
0

>  <SCORE.INTRA.POLAR.0>
0

>  <SCORE.INTRA.REPUL>
0

>  <SCORE.INTRA.REPUL.0>
0

>  <SCORE.INTRA.SOLV>
3.00892

>  <SCORE.INTRA.SOLV.lig_0>
-70.9758

>  <SCORE.INTRA.VDW>
0.237015

>  <SCORE.INTRA.VDW.0>
-2.70686

>  <SCORE.INTRA.norm>
-0.0649557

>  <SCORE.RESTR>
0

>  <SCORE.RESTR.CAVITY>
0

>  <SCORE.RESTR.norm>
0

>  <SCORE.SYSTEM>
0

>  <SCORE.SYSTEM.CONST>
0

>  <SCORE.SYSTEM.DIHEDRAL>
0

>  <SCORE.SYSTEM.SOLV>
0

>  <SCORE.SYSTEM.norm>
0

>  <SCORE.heavy>
27

>  <SCORE.norm>
-0.300896

>  <RMSD>
4.580

$$$$
ligand
 OpenBabel11021811483D
libRbt.so/2013.1/901 2013/11/27
 27 29  0  0  0  0  0  0  0  0999 V2000
   50.6728   54.1414   20.8579 N   0  0  0  0  0  0  0  0  0  0  0  0
   49.7293   53.7736   21.9112 C   0  0  2  0  0  0  0  0  0  0  0  0
   48.4298   54.5812   21.8922 C   0  0  0  0  0  0  0  0  0  0  0  0
   47.4025   54.0116   22.0566 O   0  0  0  0  0  0  0  0  0  0  0  0
   50.3490   53.6640   23.3201 C   0  0  0  0  0  0  0  0  0  0  0  0
   49.4585   53.2194   24.5136 C   0  0  0  0  0  0  0  0  0  0  0  0
   50.1495   53.2105   25.9031 C   0  0  2  0  0  0  0  0  0  0  0  0
   51.2376   52.2368   25.9917 N   0  0  0  0  0  0  0  0  0  0  0  0
   49.1224   53.0892   27.0709 C   0  0  0  0  0  0  0  0  0  0  0  0
   49.6352   53.2686   28.5396 C   0  0  1  0  0  0  0  0  0  0  0  0
   50.3804   54.4726   28.8892 O   0  0  0  0  0  0  0  0  0  0  0  0
   48.5826   53.1196   29.6735 C   0  0  1  0  0  0  0  0  0  0  0  0
   47.9966   51.8272   29.8770 O   0  0  0  0  0  0  0  0  0  0  0  0
   49.1847   53.8840   30.8930 C   0  0  1  0  0  0  0  0  0  0  0  0
   49.6231   53.1282   31.9964 O   0  0  0  0  0  0  0  0  0  0  0  0
   50.1614   54.8608   30.2306 C   0  0  2  0  0  0  0  0  0  0  0  0
   48.4942   55.9622   22.1652 O   0  0  0  0  0  0  0  0  0  0  0  0
   49.2614   59.1531   33.4327 N   0  0  0  0  0  0  0  0  0  0  0  0
   49.7605   57.9006   33.8081 C   0  0  0  0  0  0  0  0  0  0  0  0
   49.9393   56.8536   32.8047 N   0  0  0  0  0  0  0  0  0  0  0  0
   49.6208   57.0957   31.4950 C   0  0  0  0  0  0  0  0  0  0  0  0
   49.1173   58.3584   31.1260 C   0  0  0  0  0  0  0  0  0  0  0  0
   48.9387   59.4011   32.1267 C   0  0  0  0  0  0  0  0  0  0  0  0
   48.4167   60.7138   31.7451 N   0  0  0  0  0  0  0  0  0  0  0  0
   48.8672   58.3398   29.7054 N   0  0  0  0  0  0  0  0  0  0  0  0
   49.2205   57.0580   29.2222 C   0  0  0  0  0  0  0  0  0  0  0  0
   49.6911   56.2738   30.3148 N   0  0  0  0  0  0  0  0  0  0  0  0
  2  1  1  6  0  0  0
  2  3  1  0  0  0  0
  2  5  1  0  0  0  0
  3  4  1  0  0  0  0
  3 17  1  0  0  0  0
  5  6  1  0  0  0  0
  7  6  1  6  0  0  0
  7  8  1  0  0  0  0
  7  9  1  0  0  0  0
 10  9  1  6  0  0  0
 10 11  1  0  0  0  0
 10 12  1  0  0  0  0
 11 16  1  0  0  0  0
 12 13  1  1  0  0  0
 12 14  1  0  0  0  0
 14 15  1  1  0  0  0
 14 16  1  0  0  0  0
 16 27  1  6  0  0  0
 18 19  2  0  0  0  0
 18 23  1  0  0  0  0
 19 20  1  0  0  0  0
 20 21  2  0  0  0  0
 21 22  1  0  0  0  0
 21 27  1  0  0  0  0
 22 23  2  0  0  0  0
 22 25  1  0  0  0  0
 23 24  1  0  0  0  0
 25 26  2  0  0  0  0
 26 27  1  0  0  0  0
M  END
>  <CHROM.1>
136.86810925,-177.37311572,-176.89078209,-64.42276097,-171.49361325,53.76684367
-166.63440183,49.37156334,55.23651373,28.10536032,1.52438958,1.45766806,-1.89995699

>  <Name>
ligand

>  <RI>
0

>  <Rbt.Current_Directory>
/home/itssahil/PROJECTS/Mol_Feturizer/New_Systems/rnas/3GX2

>  <Rbt.Executable>
rbdock ($Id: //depot/dev/client3/rdock/2013.1/src/exe/rbdock.cxx#4 $)

>  <Rbt.Library>
libRbt.so (2013.1, Build901 2013/11/27)

>  <Rbt.Parameter_File>
/export/apps/rDock/src/rDock_2013.1_src/data/scripts/dock_solv.prm

>  <Rbt.Receptor>
prm/pocket_docking_8.prm

>  <SCORE>
-10.3678

>  <SCORE.INTER>
-6.73378

>  <SCORE.INTER.CONST>
1

>  <SCORE.INTER.POLAR>
0

>  <SCORE.INTER.ROT>
7

>  <SCORE.INTER.SOLV>
18.8465

>  <SCORE.INTER.VDW>
-19.038

>  <SCORE.INTER.norm>
-0.249399

>  <SCORE.INTRA>
-3.63404

>  <SCORE.INTRA.DIHEDRAL>
-8.49914

>  <SCORE.INTRA.DIHEDRAL.0>
13.9704

>  <SCORE.INTRA.POLAR>
0

>  <SCORE.INTRA.POLAR.0>
0

>  <SCORE.INTRA.REPUL>
0

>  <SCORE.INTRA.REPUL.0>
0

>  <SCORE.INTRA.SOLV>
0.447809

>  <SCORE.INTRA.SOLV.lig_0>
-70.9758

>  <SCORE.INTRA.VDW>
0.391625

>  <SCORE.INTRA.VDW.0>
-2.70686

>  <SCORE.INTRA.norm>
-0.134594

>  <SCORE.RESTR>
0

>  <SCORE.RESTR.CAVITY>
0

>  <SCORE.RESTR.norm>
0

>  <SCORE.SYSTEM>
0

>  <SCORE.SYSTEM.CONST>
0

>  <SCORE.SYSTEM.DIHEDRAL>
0

>  <SCORE.SYSTEM.SOLV>
0

>  <SCORE.SYSTEM.norm>
0

>  <SCORE.heavy>
27

>  <SCORE.norm>
-0.383993

>  <RMSD>
4.645

$$$$
ligand
 OpenBabel11021811473D
libRbt.so/2013.1/901 2013/11/27
 27 29  0  0  0  0  0  0  0  0999 V2000
   50.3755   55.6236   28.9332 N   0  0  0  0  0  0  0  0  0  0  0  0
   50.5255   54.3888   29.6999 C   0  0  2  0  0  0  0  0  0  0  0  0
   50.2639   53.1176   28.8894 C   0  0  0  0  0  0  0  0  0  0  0  0
   51.0455   52.8033   28.0545 O   0  0  0  0  0  0  0  0  0  0  0  0
   49.8086   54.3892   31.0664 C   0  0  0  0  0  0  0  0  0  0  0  0
   49.7940   55.6873   31.9207 C   0  0  0  0  0  0  0  0  0  0  0  0
   49.1887   55.5509   33.3432 C   0  0  2  0  0  0  0  0  0  0  0  0
   48.0179   54.6747   33.3821 N   0  0  0  0  0  0  0  0  0  0  0  0
   48.9386   56.9376   34.0123 C   0  0  0  0  0  0  0  0  0  0  0  0
   47.9843   57.9521   33.2965 C   0  0  1  0  0  0  0  0  0  0  0  0
   48.4627   58.6669   32.1186 O   0  0  0  0  0  0  0  0  0  0  0  0
   46.5797   57.4261   32.8885 C   0  0  1  0  0  0  0  0  0  0  0  0
   45.6661   57.0756   33.9362 O   0  0  0  0  0  0  0  0  0  0  0  0
   46.1026   58.3776   31.7478 C   0  0  1  0  0  0  0  0  0  0  0  0
   45.0468   59.2658   32.0257 O   0  0  0  0  0  0  0  0  0  0  0  0
   47.4197   58.9409   31.2049 C   0  0  2  0  0  0  0  0  0  0  0  0
   49.4239   52.1305   29.4423 O   0  0  0  0  0  0  0  0  0  0  0  0
   45.6734   56.1111   26.9119 N   0  0  0  0  0  0  0  0  0  0  0  0
   44.9730   56.3872   28.0918 C   0  0  0  0  0  0  0  0  0  0  0  0
   45.6047   57.1702   29.1514 N   0  0  0  0  0  0  0  0  0  0  0  0
   46.8821   57.6371   28.9920 C   0  0  0  0  0  0  0  0  0  0  0  0
   47.5806   57.3532   27.8022 C   0  0  0  0  0  0  0  0  0  0  0  0
   46.9507   56.5721   26.7470 C   0  0  0  0  0  0  0  0  0  0  0  0
   47.6744   56.2770   25.5098 N   0  0  0  0  0  0  0  0  0  0  0  0
   48.8877   57.9558   27.8990 N   0  0  0  0  0  0  0  0  0  0  0  0
   48.9727   58.6016   29.1549 C   0  0  0  0  0  0  0  0  0  0  0  0
   47.7402   58.4174   29.8455 N   0  0  0  0  0  0  0  0  0  0  0  0
  2  1  1  6  0  0  0
  2  3  1  0  0  0  0
  2  5  1  0  0  0  0
  3  4  1  0  0  0  0
  3 17  1  0  0  0  0
  5  6  1  0  0  0  0
  7  6  1  6  0  0  0
  7  8  1  0  0  0  0
  7  9  1  0  0  0  0
 10  9  1  6  0  0  0
 10 11  1  0  0  0  0
 10 12  1  0  0  0  0
 11 16  1  0  0  0  0
 12 13  1  1  0  0  0
 12 14  1  0  0  0  0
 14 15  1  1  0  0  0
 14 16  1  0  0  0  0
 16 27  1  6  0  0  0
 18 19  2  0  0  0  0
 18 23  1  0  0  0  0
 19 20  1  0  0  0  0
 20 21  2  0  0  0  0
 21 22  1  0  0  0  0
 21 27  1  0  0  0  0
 22 23  2  0  0  0  0
 22 25  1  0  0  0  0
 23 24  1  0  0  0  0
 25 26  2  0  0  0  0
 26 27  1  0  0  0  0
M  END
>  <CHROM.1>
70.07691695,-38.07810721,-173.49063514,-38.76020437,59.03888284,-75.22269229
132.17407042,48.00209664,56.46336052,30.27925789,-0.95114661,-0.83452299
1.40683950

>  <Name>
ligand

>  <RI>
0

>  <Rbt.Current_Directory>
/home/itssahil/PROJECTS/Mol_Feturizer/New_Systems/rnas/3GX2

>  <Rbt.Executable>
rbdock ($Id: //depot/dev/client3/rdock/2013.1/src/exe/rbdock.cxx#4 $)

>  <Rbt.Library>
libRbt.so (2013.1, Build901 2013/11/27)

>  <Rbt.Parameter_File>
/export/apps/rDock/src/rDock_2013.1_src/data/scripts/dock_solv.prm

>  <Rbt.Receptor>
prm/pocket_docking_3.prm

>  <SCORE>
-9.62123

>  <SCORE.INTER>
-8.46546

>  <SCORE.INTER.CONST>
1

>  <SCORE.INTER.POLAR>
0

>  <SCORE.INTER.ROT>
7

>  <SCORE.INTER.SOLV>
15.8964

>  <SCORE.INTER.VDW>
-19.2091

>  <SCORE.INTER.norm>
-0.313535

>  <SCORE.INTRA>
-1.17162

>  <SCORE.INTRA.DIHEDRAL>
-5.80247

>  <SCORE.INTRA.DIHEDRAL.0>
13.9704

>  <SCORE.INTRA.POLAR>
0

>  <SCORE.INTRA.POLAR.0>
0

>  <SCORE.INTRA.REPUL>
0

>  <SCORE.INTRA.REPUL.0>
0

>  <SCORE.INTRA.SOLV>
3.89979

>  <SCORE.INTRA.SOLV.lig_0>
-70.9758

>  <SCORE.INTRA.VDW>
-0.220274

>  <SCORE.INTRA.VDW.0>
-2.70686

>  <SCORE.INTRA.norm>
-0.0433933

>  <SCORE.RESTR>
0.0158428

>  <SCORE.RESTR.CAVITY>
0.0158428

>  <SCORE.RESTR.norm>
0.000586769

>  <SCORE.SYSTEM>
0

>  <SCORE.SYSTEM.CONST>
0

>  <SCORE.SYSTEM.DIHEDRAL>
0

>  <SCORE.SYSTEM.SOLV>
0

>  <SCORE.SYSTEM.norm>
0

>  <SCORE.heavy>
27

>  <SCORE.norm>
-0.356342

>  <RMSD>
4.656

$$$$
ligand
 OpenBabel11021811473D
libRbt.so/2013.1/901 2013/11/27
 27 29  0  0  0  0  0  0  0  0999 V2000
   50.9139   54.2093   29.4088 N   0  0  0  0  0  0  0  0  0  0  0  0
   50.2346   54.9867   28.3747 C   0  0  2  0  0  0  0  0  0  0  0  0
   51.1819   55.6577   27.3778 C   0  0  0  0  0  0  0  0  0  0  0  0
   52.2745   55.9477   27.7367 O   0  0  0  0  0  0  0  0  0  0  0  0
   49.1413   55.9401   28.9009 C   0  0  0  0  0  0  0  0  0  0  0  0
   48.1316   56.5699   27.9014 C   0  0  0  0  0  0  0  0  0  0  0  0
   47.0335   57.4688   28.5296 C   0  0  2  0  0  0  0  0  0  0  0  0
   45.9388   57.7611   27.6044 N   0  0  0  0  0  0  0  0  0  0  0  0
   47.6291   58.7467   29.1970 C   0  0  0  0  0  0  0  0  0  0  0  0
   47.7007   58.8100   30.7601 C   0  0  1  0  0  0  0  0  0  0  0  0
   46.4606   58.8182   31.5277 O   0  0  0  0  0  0  0  0  0  0  0  0
   48.5879   57.7464   31.4655 C   0  0  1  0  0  0  0  0  0  0  0  0
   50.0037   57.8058   31.2489 O   0  0  0  0  0  0  0  0  0  0  0  0
   48.0430   57.6628   32.9250 C   0  0  1  0  0  0  0  0  0  0  0  0
   48.8472   58.1726   33.9614 O   0  0  0  0  0  0  0  0  0  0  0  0
   46.6081   58.1793   32.7799 C   0  0  2  0  0  0  0  0  0  0  0  0
   50.9420   55.4799   26.0006 O   0  0  0  0  0  0  0  0  0  0  0  0
   42.1684   55.7579   30.8017 N   0  0  0  0  0  0  0  0  0  0  0  0
   42.8559   56.8496   30.2593 C   0  0  0  0  0  0  0  0  0  0  0  0
   44.0417   57.3751   30.9323 N   0  0  0  0  0  0  0  0  0  0  0  0
   44.4839   56.7999   32.0937 C   0  0  0  0  0  0  0  0  0  0  0  0
   43.7850   55.7027   32.6338 C   0  0  0  0  0  0  0  0  0  0  0  0
   42.6029   55.1800   31.9629 C   0  0  0  0  0  0  0  0  0  0  0  0
   41.8761   54.0396   32.5220 N   0  0  0  0  0  0  0  0  0  0  0  0
   44.4570   55.2994   33.8448 N   0  0  0  0  0  0  0  0  0  0  0  0
   45.5628   56.1619   34.0318 C   0  0  0  0  0  0  0  0  0  0  0  0
   45.5975   57.0966   32.9570 N   0  0  0  0  0  0  0  0  0  0  0  0
  2  1  1  1  0  0  0
  2  3  1  0  0  0  0
  2  5  1  0  0  0  0
  3  4  1  0  0  0  0
  3 17  1  0  0  0  0
  5  6  1  0  0  0  0
  7  6  1  6  0  0  0
  7  8  1  0  0  0  0
  7  9  1  0  0  0  0
 10  9  1  6  0  0  0
 10 11  1  0  0  0  0
 10 12  1  0  0  0  0
 11 16  1  0  0  0  0
 12 13  1  1  0  0  0
 12 14  1  0  0  0  0
 14 15  1  1  0  0  0
 14 16  1  0  0  0  0
 16 27  1  6  0  0  0
 18 19  2  0  0  0  0
 18 23  1  0  0  0  0
 19 20  1  0  0  0  0
 20 21  2  0  0  0  0
 21 22  1  0  0  0  0
 21 27  1  0  0  0  0
 22 23  2  0  0  0  0
 22 25  1  0  0  0  0
 23 24  1  0  0  0  0
 25 26  2  0  0  0  0
 26 27  1  0  0  0  0
M  END
>  <CHROM.1>
-27.98393293,-165.94973232,177.59531931,-165.94994440,-105.30926816,-64.75704555
-7.76993815,47.05807937,56.69471745,30.60661598,0.51965265,-0.20451419,-1.92973738

>  <Name>
ligand

>  <RI>
0

>  <Rbt.Current_Directory>
/home/itssahil/PROJECTS/Mol_Feturizer/New_Systems/rnas/3GX2

>  <Rbt.Executable>
rbdock ($Id: //depot/dev/client3/rdock/2013.1/src/exe/rbdock.cxx#4 $)

>  <Rbt.Library>
libRbt.so (2013.1, Build901 2013/11/27)

>  <Rbt.Parameter_File>
/export/apps/rDock/src/rDock_2013.1_src/data/scripts/dock_solv.prm

>  <Rbt.Receptor>
prm/pocket_docking_7.prm

>  <SCORE>
-8.31116

>  <SCORE.INTER>
-6.29894

>  <SCORE.INTER.CONST>
1

>  <SCORE.INTER.POLAR>
0

>  <SCORE.INTER.ROT>
7

>  <SCORE.INTER.SOLV>
14.4877

>  <SCORE.INTER.VDW>
-17.2952

>  <SCORE.INTER.norm>
-0.233294

>  <SCORE.INTRA>
-2.01222

>  <SCORE.INTRA.DIHEDRAL>
-3.58923

>  <SCORE.INTRA.DIHEDRAL.0>
13.9704

>  <SCORE.INTRA.POLAR>
0

>  <SCORE.INTRA.POLAR.0>
0

>  <SCORE.INTRA.REPUL>
0

>  <SCORE.INTRA.REPUL.0>
0

>  <SCORE.INTRA.SOLV>
0.0429342

>  <SCORE.INTRA.SOLV.lig_0>
-70.9758

>  <SCORE.INTRA.VDW>
-0.23907

>  <SCORE.INTRA.VDW.0>
-2.70686

>  <SCORE.INTRA.norm>
-0.0745266

>  <SCORE.RESTR>
0

>  <SCORE.RESTR.CAVITY>
0

>  <SCORE.RESTR.norm>
0

>  <SCORE.SYSTEM>
0

>  <SCORE.SYSTEM.CONST>
0

>  <SCORE.SYSTEM.DIHEDRAL>
0

>  <SCORE.SYSTEM.SOLV>
0

>  <SCORE.SYSTEM.norm>
0

>  <SCORE.heavy>
27

>  <SCORE.norm>
-0.307821

>  <RMSD>
4.673

$$$$
ligand
 OpenBabel11021811473D
libRbt.so/2013.1/901 2013/11/27
 27 29  0  0  0  0  0  0  0  0999 V2000
   49.6838   54.1107   26.5403 N   0  0  0  0  0  0  0  0  0  0  0  0
   49.1716   55.0068   25.5060 C   0  0  2  0  0  0  0  0  0  0  0  0
   50.0332   55.0554   24.2425 C   0  0  0  0  0  0  0  0  0  0  0  0
   51.1800   54.7635   24.3234 O   0  0  0  0  0  0  0  0  0  0  0  0
   48.7655   56.4070   26.0116 C   0  0  0  0  0  0  0  0  0  0  0  0
   47.6898   56.5342   27.1260 C   0  0  0  0  0  0  0  0  0  0  0  0
   47.3022   57.9828   27.5259 C   0  0  2  0  0  0  0  0  0  0  0  0
   46.8381   58.7817   26.3917 N   0  0  0  0  0  0  0  0  0  0  0  0
   48.4231   58.6855   28.3523 C   0  0  0  0  0  0  0  0  0  0  0  0
   48.4691   58.4522   29.9001 C   0  0  1  0  0  0  0  0  0  0  0  0
   47.3187   58.8361   30.7103 O   0  0  0  0  0  0  0  0  0  0  0  0
   48.8241   57.0182   30.3833 C   0  0  1  0  0  0  0  0  0  0  0  0
   50.1466   56.5315   30.1198 O   0  0  0  0  0  0  0  0  0  0  0  0
   48.2506   56.9212   31.8310 C   0  0  1  0  0  0  0  0  0  0  0  0
   49.1626   56.8788   32.9022 O   0  0  0  0  0  0  0  0  0  0  0  0
   47.1563   57.9933   31.8333 C   0  0  2  0  0  0  0  0  0  0  0  0
   49.3935   54.9632   22.9903 O   0  0  0  0  0  0  0  0  0  0  0  0
   42.6541   56.8011   29.0413 N   0  0  0  0  0  0  0  0  0  0  0  0
   43.8162   57.4155   28.5608 C   0  0  0  0  0  0  0  0  0  0  0  0
   44.9397   57.6615   29.4619 N   0  0  0  0  0  0  0  0  0  0  0  0
   44.8592   57.2901   30.7775 C   0  0  0  0  0  0  0  0  0  0  0  0
   43.6853   56.6740   31.2534 C   0  0  0  0  0  0  0  0  0  0  0  0
   42.5656   56.4299   30.3549 C   0  0  0  0  0  0  0  0  0  0  0  0
   41.3456   55.7891   30.8472 N   0  0  0  0  0  0  0  0  0  0  0  0
   43.8676   56.3930   32.6565 N   0  0  0  0  0  0  0  0  0  0  0  0
   45.1568   56.8459   33.0229 C   0  0  0  0  0  0  0  0  0  0  0  0
   45.7872   57.4027   31.8728 N   0  0  0  0  0  0  0  0  0  0  0  0
  2  1  1  1  0  0  0
  2  3  1  0  0  0  0
  2  5  1  0  0  0  0
  3  4  1  0  0  0  0
  3 17  1  0  0  0  0
  5  6  1  0  0  0  0
  7  6  1  6  0  0  0
  7  8  1  0  0  0  0
  7  9  1  0  0  0  0
 10  9  1  6  0  0  0
 10 11  1  0  0  0  0
 10 12  1  0  0  0  0
 11 16  1  0  0  0  0
 12 13  1  1  0  0  0
 12 14  1  0  0  0  0
 14 15  1  1  0  0  0
 14 16  1  0  0  0  0
 16 27  1  6  0  0  0
 18 19  2  0  0  0  0
 18 23  1  0  0  0  0
 19 20  1  0  0  0  0
 20 21  2  0  0  0  0
 21 22  1  0  0  0  0
 21 27  1  0  0  0  0
 22 23  2  0  0  0  0
 22 25  1  0  0  0  0
 23 24  1  0  0  0  0
 25 26  2  0  0  0  0
 26 27  1  0  0  0  0
M  END
>  <CHROM.1>
-23.75408175,-58.00344496,-177.43576847,56.29000097,-84.92451288,-59.77386798
19.30561483,47.02389679,56.78439574,28.99305194,-0.88604304,0.02052688,1.31773667

>  <Name>
ligand

>  <RI>
0

>  <Rbt.Current_Directory>
/home/itssahil/PROJECTS/Mol_Feturizer/New_Systems/rnas/3GX2

>  <Rbt.Executable>
rbdock ($Id: //depot/dev/client3/rdock/2013.1/src/exe/rbdock.cxx#4 $)

>  <Rbt.Library>
libRbt.so (2013.1, Build901 2013/11/27)

>  <Rbt.Parameter_File>
/export/apps/rDock/src/rDock_2013.1_src/data/scripts/dock_solv.prm

>  <Rbt.Receptor>
prm/pocket_docking_6.prm

>  <SCORE>
-11.0843

>  <SCORE.INTER>
-6.82258

>  <SCORE.INTER.CONST>
1

>  <SCORE.INTER.POLAR>
0

>  <SCORE.INTER.ROT>
7

>  <SCORE.INTER.SOLV>
18.3787

>  <SCORE.INTER.VDW>
-18.9413

>  <SCORE.INTER.norm>
-0.252688

>  <SCORE.INTRA>
-4.26167

>  <SCORE.INTRA.DIHEDRAL>
-7.44596

>  <SCORE.INTRA.DIHEDRAL.0>
13.9704

>  <SCORE.INTRA.POLAR>
0

>  <SCORE.INTRA.POLAR.0>
0

>  <SCORE.INTRA.REPUL>
0

>  <SCORE.INTRA.REPUL.0>
0

>  <SCORE.INTRA.SOLV>
0.506571

>  <SCORE.INTRA.SOLV.lig_0>
-70.9758

>  <SCORE.INTRA.VDW>
-0.791978

>  <SCORE.INTRA.VDW.0>
-2.70686

>  <SCORE.INTRA.norm>
-0.15784

>  <SCORE.RESTR>
0

>  <SCORE.RESTR.CAVITY>
0

>  <SCORE.RESTR.norm>
0

>  <SCORE.SYSTEM>
0

>  <SCORE.SYSTEM.CONST>
0

>  <SCORE.SYSTEM.DIHEDRAL>
0

>  <SCORE.SYSTEM.SOLV>
0

>  <SCORE.SYSTEM.norm>
0

>  <SCORE.heavy>
27

>  <SCORE.norm>
-0.410528

>  <RMSD>
4.724

$$$$
ligand
 OpenBabel11021811473D
libRbt.so/2013.1/901 2013/11/27
 27 29  0  0  0  0  0  0  0  0999 V2000
   49.2523   53.1683   27.4097 N   0  0  0  0  0  0  0  0  0  0  0  0
   48.4982   54.4125   27.2743 C   0  0  2  0  0  0  0  0  0  0  0  0
   49.3644   55.6338   26.9590 C   0  0  0  0  0  0  0  0  0  0  0  0
   50.5162   55.6036   27.2407 O   0  0  0  0  0  0  0  0  0  0  0  0
   47.4792   54.6730   28.4034 C   0  0  0  0  0  0  0  0  0  0  0  0
   46.6539   55.9898   28.3985 C   0  0  0  0  0  0  0  0  0  0  0  0
   45.6326   56.1491   29.5560 C   0  0  2  0  0  0  0  0  0  0  0  0
   44.4912   55.2419   29.4372 N   0  0  0  0  0  0  0  0  0  0  0  0
   45.2133   57.6361   29.7710 C   0  0  0  0  0  0  0  0  0  0  0  0
   46.1748   58.5757   30.5741 C   0  0  1  0  0  0  0  0  0  0  0  0
   46.2061   58.4830   32.0293 O   0  0  0  0  0  0  0  0  0  0  0  0
   47.6707   58.5752   30.1520 C   0  0  1  0  0  0  0  0  0  0  0  0
   48.0009   59.0952   28.8574 O   0  0  0  0  0  0  0  0  0  0  0  0
   48.4481   59.0921   31.4019 C   0  0  1  0  0  0  0  0  0  0  0  0
   49.0329   60.3705   31.3351 O   0  0  0  0  0  0  0  0  0  0  0  0
   47.4858   58.7780   32.5518 C   0  0  2  0  0  0  0  0  0  0  0  0
   48.9323   56.5209   25.9530 O   0  0  0  0  0  0  0  0  0  0  0  0
   46.2644   54.2010   35.2063 N   0  0  0  0  0  0  0  0  0  0  0  0
   45.4048   54.9956   34.4391 C   0  0  0  0  0  0  0  0  0  0  0  0
   45.9092   56.2041   33.7909 N   0  0  0  0  0  0  0  0  0  0  0  0
   47.2237   56.5611   33.9310 C   0  0  0  0  0  0  0  0  0  0  0  0
   48.0817   55.7569   34.7064 C   0  0  0  0  0  0  0  0  0  0  0  0
   47.5781   54.5530   35.3527 C   0  0  0  0  0  0  0  0  0  0  0  0
   48.4681   53.7157   36.1578 N   0  0  0  0  0  0  0  0  0  0  0  0
   49.3930   56.3577   34.6870 N   0  0  0  0  0  0  0  0  0  0  0  0
   49.3186   57.5295   33.8977 C   0  0  0  0  0  0  0  0  0  0  0  0
   47.9842   57.6716   33.4191 N   0  0  0  0  0  0  0  0  0  0  0  0
  2  1  1  1  0  0  0
  2  3  1  0  0  0  0
  2  5  1  0  0  0  0
  3  4  1  0  0  0  0
  3 17  1  0  0  0  0
  5  6  1  0  0  0  0
  7  6  1  6  0  0  0
  7  8  1  0  0  0  0
  7  9  1  0  0  0  0
 10  9  1  6  0  0  0
 10 11  1  0  0  0  0
 10 12  1  0  0  0  0
 11 16  1  0  0  0  0
 12 13  1  6  0  0  0
 12 14  1  0  0  0  0
 14 15  1  6  0  0  0
 14 16  1  0  0  0  0
 16 27  1  6  0  0  0
 18 19  2  0  0  0  0
 18 23  1  0  0  0  0
 19 20  1  0  0  0  0
 20 21  2  0  0  0  0
 21 22  1  0  0  0  0
 21 27  1  0  0  0  0
 22 23  2  0  0  0  0
 22 25  1  0  0  0  0
 23 24  1  0  0  0  0
 25 26  2  0  0  0  0
 26 27  1  0  0  0  0
M  END
>  <CHROM.1>
-22.51537673,177.74649185,178.70400284,-70.29294888,-80.07385422,-77.86427036
-12.55529983,47.60722910,56.54375546,31.10004379,0.07280116,1.43847761,-0.06376015

>  <Name>
ligand

>  <RI>
0

>  <Rbt.Current_Directory>
/home/itssahil/PROJECTS/Mol_Feturizer/New_Systems/rnas/3GX2

>  <Rbt.Executable>
rbdock ($Id: //depot/dev/client3/rdock/2013.1/src/exe/rbdock.cxx#4 $)

>  <Rbt.Library>
libRbt.so (2013.1, Build901 2013/11/27)

>  <Rbt.Parameter_File>
/export/apps/rDock/src/rDock_2013.1_src/data/scripts/dock_solv.prm

>  <Rbt.Receptor>
prm/pocket_docking_5.prm

>  <SCORE>
-9.11806

>  <SCORE.INTER>
-5.86935

>  <SCORE.INTER.CONST>
1

>  <SCORE.INTER.POLAR>
0

>  <SCORE.INTER.ROT>
7

>  <SCORE.INTER.SOLV>
12.3215

>  <SCORE.INTER.VDW>
-16.2867

>  <SCORE.INTER.norm>
-0.217383

>  <SCORE.INTRA>
-3.24871

>  <SCORE.INTRA.DIHEDRAL>
-6.62806

>  <SCORE.INTRA.DIHEDRAL.0>
13.9704

>  <SCORE.INTRA.POLAR>
0

>  <SCORE.INTRA.POLAR.0>
0

>  <SCORE.INTRA.REPUL>
0

>  <SCORE.INTRA.REPUL.0>
0

>  <SCORE.INTRA.SOLV>
0.0767507

>  <SCORE.INTRA.SOLV.lig_0>
-70.9758

>  <SCORE.INTRA.VDW>
0.0269411

>  <SCORE.INTRA.VDW.0>
-2.70686

>  <SCORE.INTRA.norm>
-0.120323

>  <SCORE.RESTR>
0

>  <SCORE.RESTR.CAVITY>
0

>  <SCORE.RESTR.norm>
0

>  <SCORE.SYSTEM>
0

>  <SCORE.SYSTEM.CONST>
0

>  <SCORE.SYSTEM.DIHEDRAL>
0

>  <SCORE.SYSTEM.SOLV>
0

>  <SCORE.SYSTEM.norm>
0

>  <SCORE.heavy>
27

>  <SCORE.norm>
-0.337706

>  <RMSD>
4.729

$$$$
ligand
 OpenBabel11021811473D
libRbt.so/2013.1/901 2013/11/27
 27 29  0  0  0  0  0  0  0  0999 V2000
   48.4449   54.6977   28.4211 N   0  0  0  0  0  0  0  0  0  0  0  0
   48.5412   56.0313   29.0103 C   0  0  2  0  0  0  0  0  0  0  0  0
   48.4430   57.1697   27.9925 C   0  0  0  0  0  0  0  0  0  0  0  0
   48.9393   57.0240   26.9251 O   0  0  0  0  0  0  0  0  0  0  0  0
   49.7072   56.2123   30.0047 C   0  0  0  0  0  0  0  0  0  0  0  0
   49.7524   55.3463   31.2943 C   0  0  0  0  0  0  0  0  0  0  0  0
   48.6452   55.6391   32.3416 C   0  0  2  0  0  0  0  0  0  0  0  0
   48.8960   56.8587   33.1095 N   0  0  0  0  0  0  0  0  0  0  0  0
   48.3426   54.4007   33.2405 C   0  0  0  0  0  0  0  0  0  0  0  0
   47.3063   54.5565   34.4042 C   0  0  1  0  0  0  0  0  0  0  0  0
   46.1298   55.3940   34.1996 O   0  0  0  0  0  0  0  0  0  0  0  0
   46.7477   53.2463   35.0265 C   0  0  1  0  0  0  0  0  0  0  0  0
   47.6583   52.4074   35.7491 O   0  0  0  0  0  0  0  0  0  0  0  0
   45.3958   53.6533   35.6905 C   0  0  1  0  0  0  0  0  0  0  0  0
   45.3257   53.6622   37.0962 O   0  0  0  0  0  0  0  0  0  0  0  0
   45.0109   54.9218   34.9226 C   0  0  2  0  0  0  0  0  0  0  0  0
   47.4059   58.1124   28.1386 O   0  0  0  0  0  0  0  0  0  0  0  0
   42.4817   56.3761   30.3427 N   0  0  0  0  0  0  0  0  0  0  0  0
   43.6787   56.8902   30.8544 C   0  0  0  0  0  0  0  0  0  0  0  0
   44.2172   56.3764   32.1118 N   0  0  0  0  0  0  0  0  0  0  0  0
   43.5534   55.3901   32.7914 C   0  0  0  0  0  0  0  0  0  0  0  0
   42.3484   54.8796   32.2704 C   0  0  0  0  0  0  0  0  0  0  0  0
   41.8120   55.3926   31.0176 C   0  0  0  0  0  0  0  0  0  0  0  0
   40.5607   54.8628   30.4743 N   0  0  0  0  0  0  0  0  0  0  0  0
   41.8664   53.8655   33.1759 N   0  0  0  0  0  0  0  0  0  0  0  0
   42.7868   53.7705   34.2462 C   0  0  0  0  0  0  0  0  0  0  0  0
   43.8393   54.7051   34.0252 N   0  0  0  0  0  0  0  0  0  0  0  0
  2  1  1  6  0  0  0
  2  3  1  0  0  0  0
  2  5  1  0  0  0  0
  3  4  1  0  0  0  0
  3 17  1  0  0  0  0
  5  6  1  0  0  0  0
  7  6  1  1  0  0  0
  7  8  1  0  0  0  0
  7  9  1  0  0  0  0
 10  9  1  6  0  0  0
 10 11  1  0  0  0  0
 10 12  1  0  0  0  0
 11 16  1  0  0  0  0
 12 13  1  1  0  0  0
 12 14  1  0  0  0  0
 14 15  1  1  0  0  0
 14 16  1  0  0  0  0
 16 27  1  6  0  0  0
 18 19  2  0  0  0  0
 18 23  1  0  0  0  0
 19 20  1  0  0  0  0
 20 21  2  0  0  0  0
 21 22  1  0  0  0  0
 21 27  1  0  0  0  0
 22 23  2  0  0  0  0
 22 25  1  0  0  0  0
 23 24  1  0  0  0  0
 25 26  2  0  0  0  0
 26 27  1  0  0  0  0
M  END
>  <CHROM.1>
-36.67924607,-61.57051746,-67.88504908,-76.55150563,176.51361388,37.03706397
-27.72637489,45.93630652,55.25907044,32.17452234,-0.91729197,0.01445384,1.97095841

>  <Name>
ligand

>  <RI>
0

>  <Rbt.Current_Directory>
/home/itssahil/PROJECTS/Mol_Feturizer/New_Systems/rnas/3GX2

>  <Rbt.Executable>
rbdock ($Id: //depot/dev/client3/rdock/2013.1/src/exe/rbdock.cxx#4 $)

>  <Rbt.Library>
libRbt.so (2013.1, Build901 2013/11/27)

>  <Rbt.Parameter_File>
/export/apps/rDock/src/rDock_2013.1_src/data/scripts/dock_solv.prm

>  <Rbt.Receptor>
prm/pocket_docking_7.prm

>  <SCORE>
-8.37243

>  <SCORE.INTER>
-6.22151

>  <SCORE.INTER.CONST>
1

>  <SCORE.INTER.POLAR>
0

>  <SCORE.INTER.ROT>
7

>  <SCORE.INTER.SOLV>
9.58817

>  <SCORE.INTER.VDW>
-15.6104

>  <SCORE.INTER.norm>
-0.230426

>  <SCORE.INTRA>
-2.15092

>  <SCORE.INTRA.DIHEDRAL>
-6.55787

>  <SCORE.INTRA.DIHEDRAL.0>
13.9704

>  <SCORE.INTRA.POLAR>
0

>  <SCORE.INTRA.POLAR.0>
0

>  <SCORE.INTRA.REPUL>
0

>  <SCORE.INTRA.REPUL.0>
0

>  <SCORE.INTRA.SOLV>
1.77312

>  <SCORE.INTRA.SOLV.lig_0>
-70.9758

>  <SCORE.INTRA.VDW>
0.241461

>  <SCORE.INTRA.VDW.0>
-2.70686

>  <SCORE.INTRA.norm>
-0.0796636

>  <SCORE.RESTR>
0

>  <SCORE.RESTR.CAVITY>
0

>  <SCORE.RESTR.norm>
0

>  <SCORE.SYSTEM>
0

>  <SCORE.SYSTEM.CONST>
0

>  <SCORE.SYSTEM.DIHEDRAL>
0

>  <SCORE.SYSTEM.SOLV>
0

>  <SCORE.SYSTEM.norm>
0

>  <SCORE.heavy>
27

>  <SCORE.norm>
-0.31009

>  <RMSD>
4.743

$$$$
ligand
 OpenBabel11021811473D
libRbt.so/2013.1/901 2013/11/27
 27 29  0  0  0  0  0  0  0  0999 V2000
   47.2448   53.6396   26.6479 N   0  0  0  0  0  0  0  0  0  0  0  0
   47.0970   55.0912   26.5701 C   0  0  2  0  0  0  0  0  0  0  0  0
   48.2114   55.7890   25.7877 C   0  0  0  0  0  0  0  0  0  0  0  0
   48.0413   56.0196   24.6367 O   0  0  0  0  0  0  0  0  0  0  0  0
   46.7852   55.7788   27.9159 C   0  0  0  0  0  0  0  0  0  0  0  0
   45.4762   55.4187   28.6723 C   0  0  0  0  0  0  0  0  0  0  0  0
   45.2480   56.1621   30.0153 C   0  0  2  0  0  0  0  0  0  0  0  0
   44.1165   55.6305   30.7752 N   0  0  0  0  0  0  0  0  0  0  0  0
   45.1877   57.7096   29.8290 C   0  0  0  0  0  0  0  0  0  0  0  0
   46.1948   58.5994   30.6330 C   0  0  1  0  0  0  0  0  0  0  0  0
   46.2296   58.4953   32.0874 O   0  0  0  0  0  0  0  0  0  0  0  0
   47.6869   58.5346   30.2025 C   0  0  1  0  0  0  0  0  0  0  0  0
   48.0333   59.0482   28.9097 O   0  0  0  0  0  0  0  0  0  0  0  0
   48.4934   59.0073   31.4515 C   0  0  1  0  0  0  0  0  0  0  0  0
   49.1348   60.2586   31.3899 O   0  0  0  0  0  0  0  0  0  0  0  0
   47.5241   58.7289   32.6046 C   0  0  2  0  0  0  0  0  0  0  0  0
   49.1571   56.5510   26.5025 O   0  0  0  0  0  0  0  0  0  0  0  0
   46.0909   54.2552   35.3285 N   0  0  0  0  0  0  0  0  0  0  0  0
   45.2606   55.1024   34.5857 C   0  0  0  0  0  0  0  0  0  0  0  0
   45.8222   56.2716   33.9130 N   0  0  0  0  0  0  0  0  0  0  0  0
   47.1617   56.5403   34.0062 C   0  0  0  0  0  0  0  0  0  0  0  0
   47.9900   55.6837   34.7573 C   0  0  0  0  0  0  0  0  0  0  0  0
   47.4295   54.5190   35.4281 C   0  0  0  0  0  0  0  0  0  0  0  0
   48.2885   53.6273   36.2081 N   0  0  0  0  0  0  0  0  0  0  0  0
   49.3371   56.1952   34.6897 N   0  0  0  0  0  0  0  0  0  0  0  0
   49.3142   57.3660   33.8959 C   0  0  0  0  0  0  0  0  0  0  0  0
   47.9767   57.5952   33.4617 N   0  0  0  0  0  0  0  0  0  0  0  0
  2  1  1  1  0  0  0
  2  3  1  0  0  0  0
  2  5  1  0  0  0  0
  3  4  1  0  0  0  0
  3 17  1  0  0  0  0
  5  6  1  0  0  0  0
  7  6  1  6  0  0  0
  7  8  1  0  0  0  0
  7  9  1  0  0  0  0
 10  9  1  6  0  0  0
 10 11  1  0  0  0  0
 10 12  1  0  0  0  0
 11 16  1  0  0  0  0
 12 13  1  6  0  0  0
 12 14  1  0  0  0  0
 14 15  1  6  0  0  0
 14 16  1  0  0  0  0
 16 27  1  6  0  0  0
 18 19  2  0  0  0  0
 18 23  1  0  0  0  0
 19 20  1  0  0  0  0
 20 21  2  0  0  0  0
 21 22  1  0  0  0  0
 21 27  1  0  0  0  0
 22 23  2  0  0  0  0
 22 25  1  0  0  0  0
 23 24  1  0  0  0  0
 25 26  2  0  0  0  0
 26 27  1  0  0  0  0
M  END
>  <CHROM.1>
94.57547742,-61.67287540,-179.92409946,-170.93964924,-122.87146797,-56.52961038
-14.73505850,47.22312513,56.62275249,31.01628739,1.53553484,-1.15710823,-1.56787402

>  <Name>
ligand

>  <RI>
0

>  <Rbt.Current_Directory>
/home/itssahil/PROJECTS/Mol_Feturizer/New_Systems/rnas/3GX2

>  <Rbt.Executable>
rbdock ($Id: //depot/dev/client3/rdock/2013.1/src/exe/rbdock.cxx#4 $)

>  <Rbt.Library>
libRbt.so (2013.1, Build901 2013/11/27)

>  <Rbt.Parameter_File>
/export/apps/rDock/src/rDock_2013.1_src/data/scripts/dock_solv.prm

>  <Rbt.Receptor>
prm/pocket_docking_6.prm

>  <SCORE>
-9.01708

>  <SCORE.INTER>
-7.38334

>  <SCORE.INTER.CONST>
1

>  <SCORE.INTER.POLAR>
0

>  <SCORE.INTER.ROT>
7

>  <SCORE.INTER.SOLV>
12.734

>  <SCORE.INTER.VDW>
-17.4335

>  <SCORE.INTER.norm>
-0.273457

>  <SCORE.INTRA>
-1.63374

>  <SCORE.INTRA.DIHEDRAL>
-3.74736

>  <SCORE.INTRA.DIHEDRAL.0>
13.9704

>  <SCORE.INTRA.POLAR>
0

>  <SCORE.INTRA.POLAR.0>
0

>  <SCORE.INTRA.REPUL>
0

>  <SCORE.INTRA.REPUL.0>
0

>  <SCORE.INTRA.SOLV>
0.427718

>  <SCORE.INTRA.SOLV.lig_0>
-70.9758

>  <SCORE.INTRA.VDW>
0.0260783

>  <SCORE.INTRA.VDW.0>
-2.70686

>  <SCORE.INTRA.norm>
-0.060509

>  <SCORE.RESTR>
0

>  <SCORE.RESTR.CAVITY>
0

>  <SCORE.RESTR.norm>
0

>  <SCORE.SYSTEM>
0

>  <SCORE.SYSTEM.CONST>
0

>  <SCORE.SYSTEM.DIHEDRAL>
0

>  <SCORE.SYSTEM.SOLV>
0

>  <SCORE.SYSTEM.norm>
0

>  <SCORE.heavy>
27

>  <SCORE.norm>
-0.333966

>  <RMSD>
4.792

$$$$
ligand
 OpenBabel11021811473D
libRbt.so/2013.1/901 2013/11/27
 27 29  0  0  0  0  0  0  0  0999 V2000
   47.4101   53.5302   26.9635 N   0  0  0  0  0  0  0  0  0  0  0  0
   47.1172   54.9438   26.7376 C   0  0  2  0  0  0  0  0  0  0  0  0
   48.1596   55.6660   25.8814 C   0  0  0  0  0  0  0  0  0  0  0  0
   47.7894   56.3163   24.9611 O   0  0  0  0  0  0  0  0  0  0  0  0
   46.7312   55.7314   28.0072 C   0  0  0  0  0  0  0  0  0  0  0  0
   45.4579   55.3252   28.8002 C   0  0  0  0  0  0  0  0  0  0  0  0
   45.2144   56.0967   30.1246 C   0  0  2  0  0  0  0  0  0  0  0  0
   44.0970   55.5581   30.9001 N   0  0  0  0  0  0  0  0  0  0  0  0
   45.1176   57.6372   29.8995 C   0  0  0  0  0  0  0  0  0  0  0  0
   46.1149   58.5693   30.6669 C   0  0  1  0  0  0  0  0  0  0  0  0
   46.1879   58.4865   32.1212 O   0  0  0  0  0  0  0  0  0  0  0  0
   47.5975   58.5455   30.2009 C   0  0  1  0  0  0  0  0  0  0  0  0
   47.8963   59.0518   28.8934 O   0  0  0  0  0  0  0  0  0  0  0  0
   48.4184   59.0606   31.4236 C   0  0  1  0  0  0  0  0  0  0  0  0
   49.0180   60.3305   31.3299 O   0  0  0  0  0  0  0  0  0  0  0  0
   47.4864   58.7679   32.6036 C   0  0  2  0  0  0  0  0  0  0  0  0
   49.4181   55.9452   26.4504 O   0  0  0  0  0  0  0  0  0  0  0  0
   46.2999   54.1834   35.2611 N   0  0  0  0  0  0  0  0  0  0  0  0
   45.4314   54.9775   34.5035 C   0  0  0  0  0  0  0  0  0  0  0  0
   45.9270   56.1883   33.8528 N   0  0  0  0  0  0  0  0  0  0  0  0
   47.2421   56.5478   33.9811 C   0  0  0  0  0  0  0  0  0  0  0  0
   48.1090   55.7441   34.7469 C   0  0  0  0  0  0  0  0  0  0  0  0
   47.6142   54.5380   35.3957 C   0  0  0  0  0  0  0  0  0  0  0  0
   48.5136   53.7012   36.1909 N   0  0  0  0  0  0  0  0  0  0  0  0
   49.4188   56.3478   34.7162 N   0  0  0  0  0  0  0  0  0  0  0  0
   49.3345   57.5208   33.9299 C   0  0  0  0  0  0  0  0  0  0  0  0
   47.9953   57.6609   33.4641 N   0  0  0  0  0  0  0  0  0  0  0  0
  2  1  1  1  0  0  0
  2  3  1  0  0  0  0
  2  5  1  0  0  0  0
  3  4  1  0  0  0  0
  3 17  1  0  0  0  0
  5  6  1  0  0  0  0
  7  6  1  6  0  0  0
  7  8  1  0  0  0  0
  7  9  1  0  0  0  0
 10  9  1  6  0  0  0
 10 11  1  0  0  0  0
 10 12  1  0  0  0  0
 11 16  1  0  0  0  0
 12 13  1  6  0  0  0
 12 14  1  0  0  0  0
 14 15  1  6  0  0  0
 14 16  1  0  0  0  0
 16 27  1  6  0  0  0
 18 19  2  0  0  0  0
 18 23  1  0  0  0  0
 19 20  1  0  0  0  0
 20 21  2  0  0  0  0
 21 22  1  0  0  0  0
 21 27  1  0  0  0  0
 22 23  2  0  0  0  0
 22 25  1  0  0  0  0
 23 24  1  0  0  0  0
 25 26  2  0  0  0  0
 26 27  1  0  0  0  0
M  END
>  <CHROM.1>
130.23461722,-61.95046020,175.14412164,-172.97694895,-122.22668681,-55.42729406
-11.00699707,47.24143811,56.59712790,31.05873124,1.58786967,-1.22756802,-1.53179004

>  <Name>
ligand

>  <RI>
0

>  <Rbt.Current_Directory>
/home/itssahil/PROJECTS/Mol_Feturizer/New_Systems/rnas/3GX2

>  <Rbt.Executable>
rbdock ($Id: //depot/dev/client3/rdock/2013.1/src/exe/rbdock.cxx#4 $)

>  <Rbt.Library>
libRbt.so (2013.1, Build901 2013/11/27)

>  <Rbt.Parameter_File>
/export/apps/rDock/src/rDock_2013.1_src/data/scripts/dock_solv.prm

>  <Rbt.Receptor>
prm/pocket_docking_5.prm

>  <SCORE>
-8.74214

>  <SCORE.INTER>
-7.0088

>  <SCORE.INTER.CONST>
1

>  <SCORE.INTER.POLAR>
0

>  <SCORE.INTER.ROT>
7

>  <SCORE.INTER.SOLV>
12.416

>  <SCORE.INTER.VDW>
-17.0779

>  <SCORE.INTER.norm>
-0.259585

>  <SCORE.INTRA>
-1.73334

>  <SCORE.INTRA.DIHEDRAL>
-3.25645

>  <SCORE.INTRA.DIHEDRAL.0>
13.9704

>  <SCORE.INTRA.POLAR>
0

>  <SCORE.INTRA.POLAR.0>
0

>  <SCORE.INTRA.REPUL>
0

>  <SCORE.INTRA.REPUL.0>
0

>  <SCORE.INTRA.SOLV>
0.405416

>  <SCORE.INTRA.SOLV.lig_0>
-70.9758

>  <SCORE.INTRA.VDW>
-0.307822

>  <SCORE.INTRA.VDW.0>
-2.70686

>  <SCORE.INTRA.norm>
-0.0641978

>  <SCORE.RESTR>
0

>  <SCORE.RESTR.CAVITY>
0

>  <SCORE.RESTR.norm>
0

>  <SCORE.SYSTEM>
0

>  <SCORE.SYSTEM.CONST>
0

>  <SCORE.SYSTEM.DIHEDRAL>
0

>  <SCORE.SYSTEM.SOLV>
0

>  <SCORE.SYSTEM.norm>
0

>  <SCORE.heavy>
27

>  <SCORE.norm>
-0.323783

>  <RMSD>
4.796

$$$$
ligand
 OpenBabel11021811473D
libRbt.so/2013.1/901 2013/11/27
 27 29  0  0  0  0  0  0  0  0999 V2000
   47.8795   54.6823   24.3018 N   0  0  0  0  0  0  0  0  0  0  0  0
   48.9378   55.5659   24.7857 C   0  0  2  0  0  0  0  0  0  0  0  0
   50.3504   55.0138   24.5834 C   0  0  0  0  0  0  0  0  0  0  0  0
   51.0930   55.5975   23.8661 O   0  0  0  0  0  0  0  0  0  0  0  0
   48.7085   56.1266   26.2050 C   0  0  0  0  0  0  0  0  0  0  0  0
   47.4061   56.9167   26.5128 C   0  0  0  0  0  0  0  0  0  0  0  0
   47.2025   57.3287   27.9951 C   0  0  2  0  0  0  0  0  0  0  0  0
   45.8436   57.7920   28.2757 N   0  0  0  0  0  0  0  0  0  0  0  0
   48.3016   58.3203   28.4871 C   0  0  0  0  0  0  0  0  0  0  0  0
   48.6252   58.3784   30.0182 C   0  0  1  0  0  0  0  0  0  0  0  0
   47.5862   58.8070   30.9476 O   0  0  0  0  0  0  0  0  0  0  0  0
   49.2146   57.0913   30.6601 C   0  0  1  0  0  0  0  0  0  0  0  0
   50.5230   56.6761   30.2467 O   0  0  0  0  0  0  0  0  0  0  0  0
   48.8994   57.2133   32.1832 C   0  0  1  0  0  0  0  0  0  0  0  0
   49.9726   57.4431   33.0643 O   0  0  0  0  0  0  0  0  0  0  0  0
   47.7057   58.1731   32.2052 C   0  0  2  0  0  0  0  0  0  0  0  0
   50.8853   54.1620   25.5704 O   0  0  0  0  0  0  0  0  0  0  0  0
   45.4005   54.1797   35.0734 N   0  0  0  0  0  0  0  0  0  0  0  0
   46.7617   54.4957   34.9955 C   0  0  0  0  0  0  0  0  0  0  0  0
   47.2070   55.6136   34.1666 N   0  0  0  0  0  0  0  0  0  0  0  0
   46.2939   56.3554   33.4657 C   0  0  0  0  0  0  0  0  0  0  0  0
   44.9261   56.0295   33.5483 C   0  0  0  0  0  0  0  0  0  0  0  0
   44.4831   54.9149   34.3740 C   0  0  0  0  0  0  0  0  0  0  0  0
   43.0624   54.5754   34.4618 N   0  0  0  0  0  0  0  0  0  0  0  0
   44.1965   56.9589   32.7207 N   0  0  0  0  0  0  0  0  0  0  0  0
   45.1334   57.8442   32.1376 C   0  0  0  0  0  0  0  0  0  0  0  0
   46.4372   57.4881   32.5882 N   0  0  0  0  0  0  0  0  0  0  0  0
  2  1  1  1  0  0  0
  2  3  1  0  0  0  0
  2  5  1  0  0  0  0
  3  4  1  0  0  0  0
  3 17  1  0  0  0  0
  5  6  1  0  0  0  0
  7  6  1  6  0  0  0
  7  8  1  0  0  0  0
  7  9  1  0  0  0  0
 10  9  1  6  0  0  0
 10 11  1  0  0  0  0
 10 12  1  0  0  0  0
 11 16  1  0  0  0  0
 12 13  1  1  0  0  0
 12 14  1  0  0  0  0
 14 15  1  1  0  0  0
 14 16  1  0  0  0  0
 16 27  1  6  0  0  0
 18 19  2  0  0  0  0
 18 23  1  0  0  0  0
 19 20  1  0  0  0  0
 20 21  2  0  0  0  0
 21 22  1  0  0  0  0
 21 27  1  0  0  0  0
 22 23  2  0  0  0  0
 22 25  1  0  0  0  0
 23 24  1  0  0  0  0
 25 26  2  0  0  0  0
 26 27  1  0  0  0  0
M  END
>  <CHROM.1>
116.33433088,-56.35421787,174.60214023,-166.98616193,-154.82239615,-63.15660246
153.92830453,47.61855257,56.44152696,30.16691987,1.11160161,-0.37864786,-1.77963924

>  <Name>
ligand

>  <RI>
0

>  <Rbt.Current_Directory>
/home/itssahil/PROJECTS/Mol_Feturizer/New_Systems/rnas/3GX2

>  <Rbt.Executable>
rbdock ($Id: //depot/dev/client3/rdock/2013.1/src/exe/rbdock.cxx#4 $)

>  <Rbt.Library>
libRbt.so (2013.1, Build901 2013/11/27)

>  <Rbt.Parameter_File>
/export/apps/rDock/src/rDock_2013.1_src/data/scripts/dock_solv.prm

>  <Rbt.Receptor>
prm/pocket_docking_7.prm

>  <SCORE>
-9.56564

>  <SCORE.INTER>
-7.19496

>  <SCORE.INTER.CONST>
1

>  <SCORE.INTER.POLAR>
0

>  <SCORE.INTER.ROT>
7

>  <SCORE.INTER.SOLV>
14.6106

>  <SCORE.INTER.VDW>
-17.9335

>  <SCORE.INTER.norm>
-0.26648

>  <SCORE.INTRA>
-2.37068

>  <SCORE.INTRA.DIHEDRAL>
-6.40216

>  <SCORE.INTRA.DIHEDRAL.0>
13.9704

>  <SCORE.INTRA.POLAR>
0

>  <SCORE.INTRA.POLAR.0>
0

>  <SCORE.INTRA.REPUL>
0

>  <SCORE.INTRA.REPUL.0>
0

>  <SCORE.INTRA.SOLV>
0.964436

>  <SCORE.INTRA.SOLV.lig_0>
-70.9758

>  <SCORE.INTRA.VDW>
0.34818

>  <SCORE.INTRA.VDW.0>
-2.70686

>  <SCORE.INTRA.norm>
-0.087803

>  <SCORE.RESTR>
0

>  <SCORE.RESTR.CAVITY>
0

>  <SCORE.RESTR.norm>
0

>  <SCORE.SYSTEM>
0

>  <SCORE.SYSTEM.CONST>
0

>  <SCORE.SYSTEM.DIHEDRAL>
0

>  <SCORE.SYSTEM.SOLV>
0

>  <SCORE.SYSTEM.norm>
0

>  <SCORE.heavy>
27

>  <SCORE.norm>
-0.354283

>  <RMSD>
4.796

$$$$
ligand
 OpenBabel11021811473D
libRbt.so/2013.1/901 2013/11/27
 27 29  0  0  0  0  0  0  0  0999 V2000
   49.5484   54.4695   28.8283 N   0  0  0  0  0  0  0  0  0  0  0  0
   49.8122   54.6230   27.3993 C   0  0  2  0  0  0  0  0  0  0  0  0
   51.2120   55.1511   27.0784 C   0  0  0  0  0  0  0  0  0  0  0  0
   51.5888   55.1198   25.9541 O   0  0  0  0  0  0  0  0  0  0  0  0
   48.7003   55.3501   26.6146 C   0  0  0  0  0  0  0  0  0  0  0  0
   48.4335   56.8567   26.8869 C   0  0  0  0  0  0  0  0  0  0  0  0
   47.9155   57.2030   28.3083 C   0  0  2  0  0  0  0  0  0  0  0  0
   46.5273   56.7949   28.5235 N   0  0  0  0  0  0  0  0  0  0  0  0
   48.1814   58.6932   28.6851 C   0  0  0  0  0  0  0  0  0  0  0  0
   47.9663   59.1387   30.1709 C   0  0  1  0  0  0  0  0  0  0  0  0
   46.6105   59.1966   30.7054 O   0  0  0  0  0  0  0  0  0  0  0  0
   48.7802   58.3797   31.2559 C   0  0  1  0  0  0  0  0  0  0  0  0
   50.2049   58.5389   31.2572 O   0  0  0  0  0  0  0  0  0  0  0  0
   47.9884   58.5915   32.5834 C   0  0  1  0  0  0  0  0  0  0  0  0
   48.5578   59.4206   33.5679 O   0  0  0  0  0  0  0  0  0  0  0  0
   46.5722   58.8984   32.0865 C   0  0  2  0  0  0  0  0  0  0  0  0
   51.8037   56.0682   27.9698 O   0  0  0  0  0  0  0  0  0  0  0  0
   45.6455   54.3327   34.8763 N   0  0  0  0  0  0  0  0  0  0  0  0
   46.7901   55.1372   34.9160 C   0  0  0  0  0  0  0  0  0  0  0  0
   46.8677   56.3401   34.0901 N   0  0  0  0  0  0  0  0  0  0  0  0
   45.8209   56.6839   33.2771 C   0  0  0  0  0  0  0  0  0  0  0  0
   44.6735   55.8676   33.2417 C   0  0  0  0  0  0  0  0  0  0  0  0
   44.5971   54.6686   34.0644 C   0  0  0  0  0  0  0  0  0  0  0  0
   43.4055   53.8198   34.0297 N   0  0  0  0  0  0  0  0  0  0  0  0
   43.7387   56.4541   32.3126 N   0  0  0  0  0  0  0  0  0  0  0  0
   44.3312   57.6264   31.7872 C   0  0  0  0  0  0  0  0  0  0  0  0
   45.6198   57.7869   32.3735 N   0  0  0  0  0  0  0  0  0  0  0  0
  2  1  1  1  0  0  0
  2  3  1  0  0  0  0
  2  5  1  0  0  0  0
  3  4  1  0  0  0  0
  3 17  1  0  0  0  0
  5  6  1  0  0  0  0
  7  6  1  6  0  0  0
  7  8  1  0  0  0  0
  7  9  1  0  0  0  0
 10  9  1  6  0  0  0
 10 11  1  0  0  0  0
 10 12  1  0  0  0  0
 11 16  1  0  0  0  0
 12 13  1  1  0  0  0
 12 14  1  0  0  0  0
 14 15  1  6  0  0  0
 14 16  1  0  0  0  0
 16 27  1  6  0  0  0
 18 19  2  0  0  0  0
 18 23  1  0  0  0  0
 19 20  1  0  0  0  0
 20 21  2  0  0  0  0
 21 22  1  0  0  0  0
 21 27  1  0  0  0  0
 22 23  2  0  0  0  0
 22 25  1  0  0  0  0
 23 24  1  0  0  0  0
 25 26  2  0  0  0  0
 26 27  1  0  0  0  0
M  END
>  <CHROM.1>
168.85438141,67.31595801,-64.84633534,-72.41585540,-168.76939612,-69.84898266
137.96750558,47.57779614,56.74315690,30.76843605,0.38442698,-0.84781061,-2.67705295

>  <Name>
ligand

>  <RI>
0

>  <Rbt.Current_Directory>
/home/itssahil/PROJECTS/Mol_Feturizer/New_Systems/rnas/3GX2

>  <Rbt.Executable>
rbdock ($Id: //depot/dev/client3/rdock/2013.1/src/exe/rbdock.cxx#4 $)

>  <Rbt.Library>
libRbt.so (2013.1, Build901 2013/11/27)

>  <Rbt.Parameter_File>
/export/apps/rDock/src/rDock_2013.1_src/data/scripts/dock_solv.prm

>  <Rbt.Receptor>
prm/pocket_docking_5.prm

>  <SCORE>
-10.2513

>  <SCORE.INTER>
-8.38746

>  <SCORE.INTER.CONST>
1

>  <SCORE.INTER.POLAR>
0

>  <SCORE.INTER.ROT>
7

>  <SCORE.INTER.SOLV>
9.51904

>  <SCORE.INTER.VDW>
-17.0313

>  <SCORE.INTER.norm>
-0.310647

>  <SCORE.INTRA>
-1.86386

>  <SCORE.INTRA.DIHEDRAL>
-7.64294

>  <SCORE.INTRA.DIHEDRAL.0>
13.9704

>  <SCORE.INTRA.POLAR>
0

>  <SCORE.INTRA.POLAR.0>
0

>  <SCORE.INTRA.REPUL>
0

>  <SCORE.INTRA.REPUL.0>
0

>  <SCORE.INTRA.SOLV>
4.4054

>  <SCORE.INTRA.SOLV.lig_0>
-70.9758

>  <SCORE.INTRA.VDW>
-0.245085

>  <SCORE.INTRA.VDW.0>
-2.70686

>  <SCORE.INTRA.norm>
-0.0690317

>  <SCORE.RESTR>
0

>  <SCORE.RESTR.CAVITY>
0

>  <SCORE.RESTR.norm>
0

>  <SCORE.SYSTEM>
0

>  <SCORE.SYSTEM.CONST>
0

>  <SCORE.SYSTEM.DIHEDRAL>
0

>  <SCORE.SYSTEM.SOLV>
0

>  <SCORE.SYSTEM.norm>
0

>  <SCORE.heavy>
27

>  <SCORE.norm>
-0.379679

>  <RMSD>
4.844

$$$$
ligand
 OpenBabel11021811473D
libRbt.so/2013.1/901 2013/11/27
 27 29  0  0  0  0  0  0  0  0999 V2000
   48.5282   53.5502   29.0527 N   0  0  0  0  0  0  0  0  0  0  0  0
   48.5735   55.0047   29.1850 C   0  0  2  0  0  0  0  0  0  0  0  0
   48.5898   55.4975   30.6335 C   0  0  0  0  0  0  0  0  0  0  0  0
   47.9247   54.9309   31.4356 O   0  0  0  0  0  0  0  0  0  0  0  0
   47.5591   55.7625   28.3031 C   0  0  0  0  0  0  0  0  0  0  0  0
   46.0405   55.4757   28.4672 C   0  0  0  0  0  0  0  0  0  0  0  0
   45.3695   56.0960   29.7216 C   0  0  2  0  0  0  0  0  0  0  0  0
   44.1332   55.4129   30.1024 N   0  0  0  0  0  0  0  0  0  0  0  0
   45.2016   57.6417   29.5960 C   0  0  0  0  0  0  0  0  0  0  0  0
   46.1429   58.5672   30.4385 C   0  0  1  0  0  0  0  0  0  0  0  0
   46.1298   58.4578   31.8928 O   0  0  0  0  0  0  0  0  0  0  0  0
   47.6508   58.5638   30.0616 C   0  0  1  0  0  0  0  0  0  0  0  0
   48.0224   59.0968   28.7837 O   0  0  0  0  0  0  0  0  0  0  0  0
   48.3927   59.0624   31.3403 C   0  0  1  0  0  0  0  0  0  0  0  0
   48.9853   60.3386   31.3058 O   0  0  0  0  0  0  0  0  0  0  0  0
   47.3946   58.7403   32.4570 C   0  0  2  0  0  0  0  0  0  0  0  0
   49.6991   56.2461   31.0749 O   0  0  0  0  0  0  0  0  0  0  0  0
   46.0224   54.2619   35.2044 N   0  0  0  0  0  0  0  0  0  0  0  0
   45.1825   55.0882   34.4489 C   0  0  0  0  0  0  0  0  0  0  0  0
   45.7278   56.2623   33.7715 N   0  0  0  0  0  0  0  0  0  0  0  0
   47.0615   56.5561   33.8726 C   0  0  0  0  0  0  0  0  0  0  0  0
   47.8994   55.7204   34.6364 C   0  0  0  0  0  0  0  0  0  0  0  0
   47.3551   54.5508   35.3119 C   0  0  0  0  0  0  0  0  0  0  0  0
   48.2243   53.6808   36.1050 N   0  0  0  0  0  0  0  0  0  0  0  0
   49.2375   56.2558   34.5749 N   0  0  0  0  0  0  0  0  0  0  0  0
   49.1994   57.4200   33.7719 C   0  0  0  0  0  0  0  0  0  0  0  0
   47.8613   57.6215   33.3261 N   0  0  0  0  0  0  0  0  0  0  0  0
  2  1  1  1  0  0  0
  2  3  1  0  0  0  0
  2  5  1  0  0  0  0
  3  4  1  0  0  0  0
  3 17  1  0  0  0  0
  5  6  1  0  0  0  0
  7  6  1  6  0  0  0
  7  8  1  0  0  0  0
  7  9  1  0  0  0  0
 10  9  1  6  0  0  0
 10 11  1  0  0  0  0
 10 12  1  0  0  0  0
 11 16  1  0  0  0  0
 12 13  1  6  0  0  0
 12 14  1  0  0  0  0
 14 15  1  6  0  0  0
 14 16  1  0  0  0  0
 16 27  1  6  0  0  0
 18 19  2  0  0  0  0
 18 23  1  0  0  0  0
 19 20  1  0  0  0  0
 20 21  2  0  0  0  0
 21 22  1  0  0  0  0
 21 27  1  0  0  0  0
 22 23  2  0  0  0  0
 22 25  1  0  0  0  0
 23 24  1  0  0  0  0
 25 26  2  0  0  0  0
 26 27  1  0  0  0  0
M  END
>  <CHROM.1>
-38.51445149,58.87935588,75.62869912,-158.19825226,-106.48209351,-59.79705707
-16.88503930,47.35701340,56.54987568,31.73890752,1.67725036,-1.23310073,-1.10059012

>  <Name>
ligand

>  <RI>
0

>  <Rbt.Current_Directory>
/home/itssahil/PROJECTS/Mol_Feturizer/New_Systems/rnas/3GX2

>  <Rbt.Executable>
rbdock ($Id: //depot/dev/client3/rdock/2013.1/src/exe/rbdock.cxx#4 $)

>  <Rbt.Library>
libRbt.so (2013.1, Build901 2013/11/27)

>  <Rbt.Parameter_File>
/export/apps/rDock/src/rDock_2013.1_src/data/scripts/dock_solv.prm

>  <Rbt.Receptor>
prm/pocket_docking_5.prm

>  <SCORE>
-8.84619

>  <SCORE.INTER>
-5.45646

>  <SCORE.INTER.CONST>
1

>  <SCORE.INTER.POLAR>
0

>  <SCORE.INTER.ROT>
7

>  <SCORE.INTER.SOLV>
10.0047

>  <SCORE.INTER.VDW>
-15.2392

>  <SCORE.INTER.norm>
-0.202091

>  <SCORE.INTRA>
-3.38973

>  <SCORE.INTRA.DIHEDRAL>
-2.35131

>  <SCORE.INTRA.DIHEDRAL.0>
13.9704

>  <SCORE.INTRA.POLAR>
0

>  <SCORE.INTRA.POLAR.0>
0

>  <SCORE.INTRA.REPUL>
0

>  <SCORE.INTRA.REPUL.0>
0

>  <SCORE.INTRA.SOLV>
2.9944

>  <SCORE.INTRA.SOLV.lig_0>
-70.9758

>  <SCORE.INTRA.VDW>
-3.71127

>  <SCORE.INTRA.VDW.0>
-2.70686

>  <SCORE.INTRA.norm>
-0.125546

>  <SCORE.RESTR>
0

>  <SCORE.RESTR.CAVITY>
0

>  <SCORE.RESTR.norm>
0

>  <SCORE.SYSTEM>
0

>  <SCORE.SYSTEM.CONST>
0

>  <SCORE.SYSTEM.DIHEDRAL>
0

>  <SCORE.SYSTEM.SOLV>
0

>  <SCORE.SYSTEM.norm>
0

>  <SCORE.heavy>
27

>  <SCORE.norm>
-0.327637

>  <RMSD>
4.899

$$$$
ligand
 OpenBabel11021811473D
libRbt.so/2013.1/901 2013/11/27
 27 29  0  0  0  0  0  0  0  0999 V2000
   50.5509   52.6049   27.8801 N   0  0  0  0  0  0  0  0  0  0  0  0
   50.4058   54.0560   27.7904 C   0  0  2  0  0  0  0  0  0  0  0  0
   51.5151   54.7441   26.9922 C   0  0  0  0  0  0  0  0  0  0  0  0
   51.3422   54.9496   25.8369 O   0  0  0  0  0  0  0  0  0  0  0  0
   50.1071   54.7566   29.1325 C   0  0  0  0  0  0  0  0  0  0  0  0
   49.8273   56.2852   29.1504 C   0  0  0  0  0  0  0  0  0  0  0  0
   48.4615   56.7269   28.5606 C   0  0  2  0  0  0  0  0  0  0  0  0
   48.2031   56.1609   27.2366 N   0  0  0  0  0  0  0  0  0  0  0  0
   48.2700   58.2741   28.6132 C   0  0  0  0  0  0  0  0  0  0  0  0
   47.9647   58.9434   29.9957 C   0  0  1  0  0  0  0  0  0  0  0  0
   46.5876   58.9884   30.4739 O   0  0  0  0  0  0  0  0  0  0  0  0
   48.7840   58.4380   31.2161 C   0  0  1  0  0  0  0  0  0  0  0  0
   50.1932   58.7008   31.2311 O   0  0  0  0  0  0  0  0  0  0  0  0
   47.9263   58.8082   32.4656 C   0  0  1  0  0  0  0  0  0  0  0  0
   48.3970   59.8295   33.3119 O   0  0  0  0  0  0  0  0  0  0  0  0
   46.5137   58.9220   31.8839 C   0  0  2  0  0  0  0  0  0  0  0  0
   52.4571   55.5263   27.6897 O   0  0  0  0  0  0  0  0  0  0  0  0
   46.0430   54.4466   34.9230 N   0  0  0  0  0  0  0  0  0  0  0  0
   47.1661   55.2711   34.7899 C   0  0  0  0  0  0  0  0  0  0  0  0
   47.1136   56.4440   33.9201 N   0  0  0  0  0  0  0  0  0  0  0  0
   45.9656   56.7403   33.2350 C   0  0  0  0  0  0  0  0  0  0  0  0
   44.8404   55.9043   33.3732 C   0  0  0  0  0  0  0  0  0  0  0  0
   44.8937   54.7350   34.2396 C   0  0  0  0  0  0  0  0  0  0  0  0
   43.7255   53.8658   34.3852 N   0  0  0  0  0  0  0  0  0  0  0  0
   43.7837   56.4407   32.5507 N   0  0  0  0  0  0  0  0  0  0  0  0
   44.2803   57.6027   31.9146 C   0  0  0  0  0  0  0  0  0  0  0  0
   45.6288   57.8060   32.3271 N   0  0  0  0  0  0  0  0  0  0  0  0
  2  1  1  1  0  0  0
  2  3  1  0  0  0  0
  2  5  1  0  0  0  0
  3  4  1  0  0  0  0
  3 17  1  0  0  0  0
  5  6  1  0  0  0  0
  7  6  1  6  0  0  0
  7  8  1  0  0  0  0
  7  9  1  0  0  0  0
 10  9  1  6  0  0  0
 10 11  1  0  0  0  0
 10 12  1  0  0  0  0
 11 16  1  0  0  0  0
 12 13  1  1  0  0  0
 12 14  1  0  0  0  0
 14 15  1  6  0  0  0
 14 16  1  0  0  0  0
 16 27  1  6  0  0  0
 18 19  2  0  0  0  0
 18 23  1  0  0  0  0
 19 20  1  0  0  0  0
 20 21  2  0  0  0  0
 21 22  1  0  0  0  0
 21 27  1  0  0  0  0
 22 23  2  0  0  0  0
 22 25  1  0  0  0  0
 23 24  1  0  0  0  0
 25 26  2  0  0  0  0
 26 27  1  0  0  0  0
M  END
>  <CHROM.1>
93.65179178,-175.49111681,71.85792614,-50.46916359,-74.12167423,-84.40080342
125.60577750,47.91209010,56.54566302,30.84813584,0.21144183,-0.83937323,-3.05669415

>  <Name>
ligand

>  <RI>
0

>  <Rbt.Current_Directory>
/home/itssahil/PROJECTS/Mol_Feturizer/New_Systems/rnas/3GX2

>  <Rbt.Executable>
rbdock ($Id: //depot/dev/client3/rdock/2013.1/src/exe/rbdock.cxx#4 $)

>  <Rbt.Library>
libRbt.so (2013.1, Build901 2013/11/27)

>  <Rbt.Parameter_File>
/export/apps/rDock/src/rDock_2013.1_src/data/scripts/dock_solv.prm

>  <Rbt.Receptor>
prm/pocket_docking_5.prm

>  <SCORE>
-9.30858

>  <SCORE.INTER>
-8.25145

>  <SCORE.INTER.CONST>
1

>  <SCORE.INTER.POLAR>
0

>  <SCORE.INTER.ROT>
7

>  <SCORE.INTER.SOLV>
12.2132

>  <SCORE.INTER.VDW>
-17.8387

>  <SCORE.INTER.norm>
-0.305609

>  <SCORE.INTRA>
-1.06105

>  <SCORE.INTRA.DIHEDRAL>
-6.03276

>  <SCORE.INTRA.DIHEDRAL.0>
13.9704

>  <SCORE.INTRA.POLAR>
0

>  <SCORE.INTRA.POLAR.0>
0

>  <SCORE.INTRA.REPUL>
0

>  <SCORE.INTRA.REPUL.0>
0

>  <SCORE.INTRA.SOLV>
2.42499

>  <SCORE.INTRA.SOLV.lig_0>
-70.9758

>  <SCORE.INTRA.VDW>
0.742841

>  <SCORE.INTRA.VDW.0>
-2.70686

>  <SCORE.INTRA.norm>
-0.039298

>  <SCORE.RESTR>
0.00391374

>  <SCORE.RESTR.CAVITY>
0.00391374

>  <SCORE.RESTR.norm>
0.000144953

>  <SCORE.SYSTEM>
0

>  <SCORE.SYSTEM.CONST>
0

>  <SCORE.SYSTEM.DIHEDRAL>
0

>  <SCORE.SYSTEM.SOLV>
0

>  <SCORE.SYSTEM.norm>
0

>  <SCORE.heavy>
27

>  <SCORE.norm>
-0.344762

>  <RMSD>
4.899

$$$$
ligand
 OpenBabel11021811473D
libRbt.so/2013.1/901 2013/11/27
 27 29  0  0  0  0  0  0  0  0999 V2000
   49.5504   55.5482   28.6932 N   0  0  0  0  0  0  0  0  0  0  0  0
   49.6082   55.4556   27.2361 C   0  0  2  0  0  0  0  0  0  0  0  0
   51.0272   55.3378   26.6759 C   0  0  0  0  0  0  0  0  0  0  0  0
   51.1702   55.2401   25.5025 O   0  0  0  0  0  0  0  0  0  0  0  0
   48.7520   56.5010   26.4909 C   0  0  0  0  0  0  0  0  0  0  0  0
   47.2197   56.5540   26.7444 C   0  0  0  0  0  0  0  0  0  0  0  0
   46.7872   56.9960   28.1678 C   0  0  2  0  0  0  0  0  0  0  0  0
   45.3778   56.7203   28.4459 N   0  0  0  0  0  0  0  0  0  0  0  0
   47.1957   58.4694   28.4765 C   0  0  0  0  0  0  0  0  0  0  0  0
   47.1072   58.9758   29.9557 C   0  0  1  0  0  0  0  0  0  0  0  0
   45.8266   58.9160   30.6512 O   0  0  0  0  0  0  0  0  0  0  0  0
   48.1263   58.3763   30.9647 C   0  0  1  0  0  0  0  0  0  0  0  0
   49.5129   58.6909   30.7820 O   0  0  0  0  0  0  0  0  0  0  0  0
   47.4776   58.5781   32.3692 C   0  0  1  0  0  0  0  0  0  0  0  0
   48.0590   59.5215   33.2368 O   0  0  0  0  0  0  0  0  0  0  0  0
   45.9866   58.6976   32.0384 C   0  0  2  0  0  0  0  0  0  0  0  0
   52.0980   55.8197   27.4549 O   0  0  0  0  0  0  0  0  0  0  0  0
   41.8436   55.3364   31.0257 N   0  0  0  0  0  0  0  0  0  0  0  0
   42.2598   56.4301   30.2580 C   0  0  0  0  0  0  0  0  0  0  0  0
   43.4046   57.2310   30.6860 N   0  0  0  0  0  0  0  0  0  0  0  0
   44.0736   56.9126   31.8376 C   0  0  0  0  0  0  0  0  0  0  0  0
   43.6470   55.8114   32.6053 C   0  0  0  0  0  0  0  0  0  0  0  0
   42.5056   55.0142   32.1786 C   0  0  0  0  0  0  0  0  0  0  0  0
   42.0615   53.8692   32.9743 N   0  0  0  0  0  0  0  0  0  0  0  0
   44.5162   55.7047   33.7516 N   0  0  0  0  0  0  0  0  0  0  0  0
   45.4666   56.7495   33.6707 C   0  0  0  0  0  0  0  0  0  0  0  0
   45.2104   57.5072   32.4915 N   0  0  0  0  0  0  0  0  0  0  0  0
  2  1  1  1  0  0  0
  2  3  1  0  0  0  0
  2  5  1  0  0  0  0
  3  4  1  0  0  0  0
  3 17  1  0  0  0  0
  5  6  1  0  0  0  0
  7  6  1  6  0  0  0
  7  8  1  0  0  0  0
  7  9  1  0  0  0  0
 10  9  1  6  0  0  0
 10 11  1  0  0  0  0
 10 12  1  0  0  0  0
 11 16  1  0  0  0  0
 12 13  1  1  0  0  0
 12 14  1  0  0  0  0
 14 15  1  6  0  0  0
 14 16  1  0  0  0  0
 16 27  1  6  0  0  0
 18 19  2  0  0  0  0
 18 23  1  0  0  0  0
 19 20  1  0  0  0  0
 20 21  2  0  0  0  0
 21 22  1  0  0  0  0
 21 27  1  0  0  0  0
 22 23  2  0  0  0  0
 22 25  1  0  0  0  0
 23 24  1  0  0  0  0
 25 26  2  0  0  0  0
 26 27  1  0  0  0  0
M  END
>  <CHROM.1>
179.04342248,-58.92938694,66.82596607,-166.13498788,-167.37307604,-57.99727744
-22.00713264,46.64019422,56.87778034,30.13939212,0.53095323,-0.40663711,-2.17866907

>  <Name>
ligand

>  <RI>
0

>  <Rbt.Current_Directory>
/home/itssahil/PROJECTS/Mol_Feturizer/New_Systems/rnas/3GX2

>  <Rbt.Executable>
rbdock ($Id: //depot/dev/client3/rdock/2013.1/src/exe/rbdock.cxx#4 $)

>  <Rbt.Library>
libRbt.so (2013.1, Build901 2013/11/27)

>  <Rbt.Parameter_File>
/export/apps/rDock/src/rDock_2013.1_src/data/scripts/dock_solv.prm

>  <Rbt.Receptor>
prm/pocket_docking_6.prm

>  <SCORE>
-11

>  <SCORE.INTER>
-9.2058

>  <SCORE.INTER.CONST>
1

>  <SCORE.INTER.POLAR>
0

>  <SCORE.INTER.ROT>
7

>  <SCORE.INTER.SOLV>
10.9642

>  <SCORE.INTER.VDW>
-18.0586

>  <SCORE.INTER.norm>
-0.340956

>  <SCORE.INTRA>
-1.79418

>  <SCORE.INTRA.DIHEDRAL>
-8.01125

>  <SCORE.INTRA.DIHEDRAL.0>
13.9704

>  <SCORE.INTRA.POLAR>
0

>  <SCORE.INTRA.POLAR.0>
0

>  <SCORE.INTRA.REPUL>
0

>  <SCORE.INTRA.REPUL.0>
0

>  <SCORE.INTRA.SOLV>
4.91549

>  <SCORE.INTRA.SOLV.lig_0>
-70.9758

>  <SCORE.INTRA.VDW>
-0.246301

>  <SCORE.INTRA.VDW.0>
-2.70686

>  <SCORE.INTRA.norm>
-0.0664511

>  <SCORE.RESTR>
0

>  <SCORE.RESTR.CAVITY>
0

>  <SCORE.RESTR.norm>
0

>  <SCORE.SYSTEM>
0

>  <SCORE.SYSTEM.CONST>
0

>  <SCORE.SYSTEM.DIHEDRAL>
0

>  <SCORE.SYSTEM.SOLV>
0

>  <SCORE.SYSTEM.norm>
0

>  <SCORE.heavy>
27

>  <SCORE.norm>
-0.407407

>  <RMSD>
4.925

$$$$
ligand
 OpenBabel11021811483D
libRbt.so/2013.1/901 2013/11/27
 27 29  0  0  0  0  0  0  0  0999 V2000
   48.2378   54.7744   28.3057 N   0  0  0  0  0  0  0  0  0  0  0  0
   48.7898   55.9235   29.0198 C   0  0  2  0  0  0  0  0  0  0  0  0
   49.1252   57.1136   28.1185 C   0  0  0  0  0  0  0  0  0  0  0  0
   49.4239   56.9068   26.9894 O   0  0  0  0  0  0  0  0  0  0  0  0
   49.9221   55.5814   30.0108 C   0  0  0  0  0  0  0  0  0  0  0  0
   49.6294   54.6335   31.2071 C   0  0  0  0  0  0  0  0  0  0  0  0
   48.6057   55.1592   32.2484 C   0  0  2  0  0  0  0  0  0  0  0  0
   49.1245   56.2702   33.0462 N   0  0  0  0  0  0  0  0  0  0  0  0
   48.0053   54.0102   33.1158 C   0  0  0  0  0  0  0  0  0  0  0  0
   47.0130   54.3835   34.2684 C   0  0  1  0  0  0  0  0  0  0  0  0
   45.8764   55.2488   33.9741 O   0  0  0  0  0  0  0  0  0  0  0  0
   46.4053   53.2055   35.0802 C   0  0  1  0  0  0  0  0  0  0  0  0
   47.2918   52.4256   35.8933 O   0  0  0  0  0  0  0  0  0  0  0  0
   45.0966   53.7755   35.7098 C   0  0  1  0  0  0  0  0  0  0  0  0
   45.0682   53.9832   37.1015 O   0  0  0  0  0  0  0  0  0  0  0  0
   44.7560   54.9446   34.7803 C   0  0  2  0  0  0  0  0  0  0  0  0
   48.6232   58.3828   28.4688 O   0  0  0  0  0  0  0  0  0  0  0  0
   41.9449   56.2308   30.3160 N   0  0  0  0  0  0  0  0  0  0  0  0
   43.1467   56.7960   30.7576 C   0  0  0  0  0  0  0  0  0  0  0  0
   43.7671   56.3229   31.9930 N   0  0  0  0  0  0  0  0  0  0  0  0
   43.1755   55.3248   32.7204 C   0  0  0  0  0  0  0  0  0  0  0  0
   41.9651   54.7628   32.2698 C   0  0  0  0  0  0  0  0  0  0  0  0
   41.3469   55.2353   31.0389 C   0  0  0  0  0  0  0  0  0  0  0  0
   40.0899   54.6520   30.5687 N   0  0  0  0  0  0  0  0  0  0  0  0
   41.5674   53.7471   33.2139 N   0  0  0  0  0  0  0  0  0  0  0  0
   42.5441   53.7031   34.2365 C   0  0  0  0  0  0  0  0  0  0  0  0
   43.5489   54.6710   33.9478 N   0  0  0  0  0  0  0  0  0  0  0  0
  2  1  1  6  0  0  0
  2  3  1  0  0  0  0
  2  5  1  0  0  0  0
  3  4  1  0  0  0  0
  3 17  1  0  0  0  0
  5  6  1  0  0  0  0
  7  6  1  1  0  0  0
  7  8  1  0  0  0  0
  7  9  1  0  0  0  0
 10  9  1  6  0  0  0
 10 11  1  0  0  0  0
 10 12  1  0  0  0  0
 11 16  1  0  0  0  0
 12 13  1  1  0  0  0
 12 14  1  0  0  0  0
 14 15  1  1  0  0  0
 14 16  1  0  0  0  0
 16 27  1  6  0  0  0
 18 19  2  0  0  0  0
 18 23  1  0  0  0  0
 19 20  1  0  0  0  0
 20 21  2  0  0  0  0
 21 22  1  0  0  0  0
 21 27  1  0  0  0  0
 22 23  2  0  0  0  0
 22 25  1  0  0  0  0
 23 24  1  0  0  0  0
 25 26  2  0  0  0  0
 26 27  1  0  0  0  0
M  END
>  <CHROM.1>
-28.75425045,-61.36757799,-64.19610243,-70.34358755,176.69043828,51.12887372
-36.65661866,45.81094772,55.12680054,32.15953863,0.71769695,0.00049372,-1.17374511

>  <Name>
ligand

>  <RI>
0

>  <Rbt.Current_Directory>
/home/itssahil/PROJECTS/Mol_Feturizer/New_Systems/rnas/3GX2

>  <Rbt.Executable>
rbdock ($Id: //depot/dev/client3/rdock/2013.1/src/exe/rbdock.cxx#4 $)

>  <Rbt.Library>
libRbt.so (2013.1, Build901 2013/11/27)

>  <Rbt.Parameter_File>
/export/apps/rDock/src/rDock_2013.1_src/data/scripts/dock_solv.prm

>  <Rbt.Receptor>
prm/pocket_docking_8.prm

>  <SCORE>
-9.84138

>  <SCORE.INTER>
-6.7645

>  <SCORE.INTER.CONST>
1

>  <SCORE.INTER.POLAR>
0

>  <SCORE.INTER.ROT>
7

>  <SCORE.INTER.SOLV>
10.2047

>  <SCORE.INTER.VDW>
-16.1779

>  <SCORE.INTER.norm>
-0.250537

>  <SCORE.INTRA>
-3.07688

>  <SCORE.INTRA.DIHEDRAL>
-8.75403

>  <SCORE.INTRA.DIHEDRAL.0>
13.9704

>  <SCORE.INTRA.POLAR>
0

>  <SCORE.INTRA.POLAR.0>
0

>  <SCORE.INTRA.REPUL>
0

>  <SCORE.INTRA.REPUL.0>
0

>  <SCORE.INTRA.SOLV>
1.79872

>  <SCORE.INTRA.SOLV.lig_0>
-70.9758

>  <SCORE.INTRA.VDW>
0.400778

>  <SCORE.INTRA.VDW.0>
-2.70686

>  <SCORE.INTRA.norm>
-0.113959

>  <SCORE.RESTR>
0

>  <SCORE.RESTR.CAVITY>
0

>  <SCORE.RESTR.norm>
0

>  <SCORE.SYSTEM>
0

>  <SCORE.SYSTEM.CONST>
0

>  <SCORE.SYSTEM.DIHEDRAL>
0

>  <SCORE.SYSTEM.SOLV>
0

>  <SCORE.SYSTEM.norm>
0

>  <SCORE.heavy>
27

>  <SCORE.norm>
-0.364496

>  <RMSD>
4.940

$$$$
ligand
 OpenBabel11021811473D
libRbt.so/2013.1/901 2013/11/27
 27 29  0  0  0  0  0  0  0  0999 V2000
   46.0946   56.3850   28.5206 N   0  0  0  0  0  0  0  0  0  0  0  0
   46.2921   57.8017   28.2226 C   0  0  2  0  0  0  0  0  0  0  0  0
   47.2548   58.0652   27.0629 C   0  0  0  0  0  0  0  0  0  0  0  0
   46.9737   58.8987   26.2671 O   0  0  0  0  0  0  0  0  0  0  0  0
   46.5795   58.6842   29.4554 C   0  0  0  0  0  0  0  0  0  0  0  0
   47.8402   58.4023   30.3192 C   0  0  0  0  0  0  0  0  0  0  0  0
   47.9516   59.2178   31.6349 C   0  0  2  0  0  0  0  0  0  0  0  0
   47.8729   60.6623   31.4177 N   0  0  0  0  0  0  0  0  0  0  0  0
   49.1863   58.7931   32.4883 C   0  0  0  0  0  0  0  0  0  0  0  0
   49.1802   57.3786   33.1602 C   0  0  1  0  0  0  0  0  0  0  0  0
   48.1761   57.0790   34.1747 O   0  0  0  0  0  0  0  0  0  0  0  0
   49.1506   56.1499   32.2087 C   0  0  1  0  0  0  0  0  0  0  0  0
   50.2975   55.9168   31.3809 O   0  0  0  0  0  0  0  0  0  0  0  0
   48.5817   54.9799   33.0699 C   0  0  1  0  0  0  0  0  0  0  0  0
   49.4580   53.9411   33.4357 O   0  0  0  0  0  0  0  0  0  0  0  0
   47.8064   55.7147   34.1679 C   0  0  2  0  0  0  0  0  0  0  0  0
   48.6068   57.6990   27.2170 O   0  0  0  0  0  0  0  0  0  0  0  0
   43.2535   53.5801   36.2177 N   0  0  0  0  0  0  0  0  0  0  0  0
   44.5511   53.4707   36.7306 C   0  0  0  0  0  0  0  0  0  0  0  0
   45.6668   54.1153   36.0416 N   0  0  0  0  0  0  0  0  0  0  0  0
   45.4455   54.8289   34.8940 C   0  0  0  0  0  0  0  0  0  0  0  0
   44.1367   54.9324   34.3836 C   0  0  0  0  0  0  0  0  0  0  0  0
   43.0254   54.2892   35.0704 C   0  0  0  0  0  0  0  0  0  0  0  0
   41.6649   54.3964   34.5422 N   0  0  0  0  0  0  0  0  0  0  0  0
   44.1896   55.7281   33.1815 N   0  0  0  0  0  0  0  0  0  0  0  0
   45.5380   56.1005   32.9700 C   0  0  0  0  0  0  0  0  0  0  0  0
   46.3307   55.5551   34.0208 N   0  0  0  0  0  0  0  0  0  0  0  0
  2  1  1  1  0  0  0
  2  3  1  0  0  0  0
  2  5  1  0  0  0  0
  3  4  1  0  0  0  0
  3 17  1  0  0  0  0
  5  6  1  0  0  0  0
  7  6  1  6  0  0  0
  7  8  1  0  0  0  0
  7  9  1  0  0  0  0
 10  9  1  6  0  0  0
 10 11  1  0  0  0  0
 10 12  1  0  0  0  0
 11 16  1  0  0  0  0
 12 13  1  1  0  0  0
 12 14  1  0  0  0  0
 14 15  1  1  0  0  0
 14 16  1  0  0  0  0
 16 27  1  6  0  0  0
 18 19  2  0  0  0  0
 18 23  1  0  0  0  0
 19 20  1  0  0  0  0
 20 21  2  0  0  0  0
 21 22  1  0  0  0  0
 21 27  1  0  0  0  0
 22 23  2  0  0  0  0
 22 25  1  0  0  0  0
 23 24  1  0  0  0  0
 25 26  2  0  0  0  0
 26 27  1  0  0  0  0
M  END
>  <CHROM.1>
137.49784844,60.95869460,-172.49109899,-55.14704035,-69.00564627,-63.63076014
-124.95183968,46.79494968,56.44035078,32.20724099,1.16077650,-0.20604047
-1.11970635

>  <Name>
ligand

>  <RI>
0

>  <Rbt.Current_Directory>
/home/itssahil/PROJECTS/Mol_Feturizer/New_Systems/rnas/3GX2

>  <Rbt.Executable>
rbdock ($Id: //depot/dev/client3/rdock/2013.1/src/exe/rbdock.cxx#4 $)

>  <Rbt.Library>
libRbt.so (2013.1, Build901 2013/11/27)

>  <Rbt.Parameter_File>
/export/apps/rDock/src/rDock_2013.1_src/data/scripts/dock_solv.prm

>  <Rbt.Receptor>
prm/pocket_docking_6.prm

>  <SCORE>
-12.6333

>  <SCORE.INTER>
-8.38237

>  <SCORE.INTER.CONST>
1

>  <SCORE.INTER.POLAR>
0

>  <SCORE.INTER.ROT>
7

>  <SCORE.INTER.SOLV>
19.1832

>  <SCORE.INTER.VDW>
-20.2493

>  <SCORE.INTER.norm>
-0.310458

>  <SCORE.INTRA>
-4.25092

>  <SCORE.INTRA.DIHEDRAL>
-8.44382

>  <SCORE.INTRA.DIHEDRAL.0>
13.9704

>  <SCORE.INTRA.POLAR>
0

>  <SCORE.INTRA.POLAR.0>
0

>  <SCORE.INTRA.REPUL>
0

>  <SCORE.INTRA.REPUL.0>
0

>  <SCORE.INTRA.SOLV>
0.406717

>  <SCORE.INTRA.SOLV.lig_0>
-70.9758

>  <SCORE.INTRA.VDW>
-0.232367

>  <SCORE.INTRA.VDW.0>
-2.70686

>  <SCORE.INTRA.norm>
-0.157442

>  <SCORE.RESTR>
0

>  <SCORE.RESTR.CAVITY>
0

>  <SCORE.RESTR.norm>
0

>  <SCORE.SYSTEM>
0

>  <SCORE.SYSTEM.CONST>
0

>  <SCORE.SYSTEM.DIHEDRAL>
0

>  <SCORE.SYSTEM.SOLV>
0

>  <SCORE.SYSTEM.norm>
0

>  <SCORE.heavy>
27

>  <SCORE.norm>
-0.4679

>  <RMSD>
4.985

$$$$
ligand
 OpenBabel11021811473D
libRbt.so/2013.1/901 2013/11/27
 27 29  0  0  0  0  0  0  0  0999 V2000
   47.9765   57.2367   26.3404 N   0  0  0  0  0  0  0  0  0  0  0  0
   47.4301   56.9834   27.6717 C   0  0  2  0  0  0  0  0  0  0  0  0
   45.9655   56.5407   27.6693 C   0  0  0  0  0  0  0  0  0  0  0  0
   45.7174   55.3912   27.8234 O   0  0  0  0  0  0  0  0  0  0  0  0
   47.7229   58.0887   28.7079 C   0  0  0  0  0  0  0  0  0  0  0  0
   47.3832   57.8420   30.2043 C   0  0  0  0  0  0  0  0  0  0  0  0
   47.6918   59.0187   31.1680 C   0  0  2  0  0  0  0  0  0  0  0  0
   49.0979   59.4214   31.1429 N   0  0  0  0  0  0  0  0  0  0  0  0
   47.1555   58.7558   32.6090 C   0  0  0  0  0  0  0  0  0  0  0  0
   47.6279   57.4647   33.3589 C   0  0  1  0  0  0  0  0  0  0  0  0
   47.1094   56.1686   32.9365 O   0  0  0  0  0  0  0  0  0  0  0  0
   49.1619   57.2480   33.4846 C   0  0  1  0  0  0  0  0  0  0  0  0
   49.9040   58.1701   34.2932 O   0  0  0  0  0  0  0  0  0  0  0  0
   49.3403   55.7156   33.7172 C   0  0  1  0  0  0  0  0  0  0  0  0
   49.7634   55.2845   34.9884 O   0  0  0  0  0  0  0  0  0  0  0  0
   48.0513   55.1325   33.1295 C   0  0  2  0  0  0  0  0  0  0  0  0
   44.9751   57.4974   27.9687 O   0  0  0  0  0  0  0  0  0  0  0  0
   50.6496   55.0141   28.3628 N   0  0  0  0  0  0  0  0  0  0  0  0
   50.7165   56.0095   29.3444 C   0  0  0  0  0  0  0  0  0  0  0  0
   49.9421   55.8754   30.5762 N   0  0  0  0  0  0  0  0  0  0  0  0
   49.1510   54.7753   30.7739 C   0  0  0  0  0  0  0  0  0  0  0  0
   49.0879   53.7791   29.7801 C   0  0  0  0  0  0  0  0  0  0  0  0
   49.8593   53.9138   28.5524 C   0  0  0  0  0  0  0  0  0  0  0  0
   49.7958   52.8795   27.5192 N   0  0  0  0  0  0  0  0  0  0  0  0
   48.1905   52.7477   30.2403 N   0  0  0  0  0  0  0  0  0  0  0  0
   47.7118   53.1302   31.5155 C   0  0  0  0  0  0  0  0  0  0  0  0
   48.2965   54.3819   31.8641 N   0  0  0  0  0  0  0  0  0  0  0  0
  2  1  1  6  0  0  0
  2  3  1  0  0  0  0
  2  5  1  0  0  0  0
  3  4  1  0  0  0  0
  3 17  1  0  0  0  0
  5  6  1  0  0  0  0
  7  6  1  6  0  0  0
  7  8  1  0  0  0  0
  7  9  1  0  0  0  0
 10  9  1  6  0  0  0
 10 11  1  0  0  0  0
 10 12  1  0  0  0  0
 11 16  1  0  0  0  0
 12 13  1  1  0  0  0
 12 14  1  0  0  0  0
 14 15  1  1  0  0  0
 14 16  1  0  0  0  0
 16 27  1  6  0  0  0
 18 19  2  0  0  0  0
 18 23  1  0  0  0  0
 19 20  1  0  0  0  0
 20 21  2  0  0  0  0
 21 22  1  0  0  0  0
 21 27  1  0  0  0  0
 22 23  2  0  0  0  0
 22 25  1  0  0  0  0
 23 24  1  0  0  0  0
 25 26  2  0  0  0  0
 26 27  1  0  0  0  0
M  END
>  <CHROM.1>
102.19903792,-170.88525672,-179.05551876,-58.04323651,56.58488765,-72.71683495
80.19205466,48.31060627,56.13576340,30.60997767,1.99695014,1.05925490,-2.11545044

>  <Name>
ligand

>  <RI>
0

>  <Rbt.Current_Directory>
/home/itssahil/PROJECTS/Mol_Feturizer/New_Systems/rnas/3GX2

>  <Rbt.Executable>
rbdock ($Id: //depot/dev/client3/rdock/2013.1/src/exe/rbdock.cxx#4 $)

>  <Rbt.Library>
libRbt.so (2013.1, Build901 2013/11/27)

>  <Rbt.Parameter_File>
/export/apps/rDock/src/rDock_2013.1_src/data/scripts/dock_solv.prm

>  <Rbt.Receptor>
prm/pocket_docking_3.prm

>  <SCORE>
-10.5947

>  <SCORE.INTER>
-5.13045

>  <SCORE.INTER.CONST>
1

>  <SCORE.INTER.POLAR>
0

>  <SCORE.INTER.ROT>
7

>  <SCORE.INTER.SOLV>
17.4374

>  <SCORE.INTER.VDW>
-17.4994

>  <SCORE.INTER.norm>
-0.190017

>  <SCORE.INTRA>
-5.4643

>  <SCORE.INTRA.DIHEDRAL>
-8.62228

>  <SCORE.INTRA.DIHEDRAL.0>
13.9704

>  <SCORE.INTRA.POLAR>
0

>  <SCORE.INTRA.POLAR.0>
0

>  <SCORE.INTRA.REPUL>
0

>  <SCORE.INTRA.REPUL.0>
0

>  <SCORE.INTRA.SOLV>
2.1281

>  <SCORE.INTRA.SOLV.lig_0>
-70.9758

>  <SCORE.INTRA.VDW>
-2.21721

>  <SCORE.INTRA.VDW.0>
-2.70686

>  <SCORE.INTRA.norm>
-0.202381

>  <SCORE.RESTR>
0

>  <SCORE.RESTR.CAVITY>
0

>  <SCORE.RESTR.norm>
0

>  <SCORE.SYSTEM>
0

>  <SCORE.SYSTEM.CONST>
0

>  <SCORE.SYSTEM.DIHEDRAL>
0

>  <SCORE.SYSTEM.SOLV>
0

>  <SCORE.SYSTEM.norm>
0

>  <SCORE.heavy>
27

>  <SCORE.norm>
-0.392398

>  <RMSD>
4.998

$$$$
ligand
 OpenBabel11021811473D
libRbt.so/2013.1/901 2013/11/27
 27 29  0  0  0  0  0  0  0  0999 V2000
   48.5474   53.4634   24.7970 N   0  0  0  0  0  0  0  0  0  0  0  0
   48.7747   53.8976   26.1735 C   0  0  2  0  0  0  0  0  0  0  0  0
   47.5121   54.3811   26.8899 C   0  0  0  0  0  0  0  0  0  0  0  0
   47.2370   53.9073   27.9419 O   0  0  0  0  0  0  0  0  0  0  0  0
   49.9734   54.8519   26.3571 C   0  0  0  0  0  0  0  0  0  0  0  0
   50.3740   55.3084   27.7876 C   0  0  0  0  0  0  0  0  0  0  0  0
   49.3687   56.2520   28.5000 C   0  0  2  0  0  0  0  0  0  0  0  0
   49.1292   57.4914   27.7607 N   0  0  0  0  0  0  0  0  0  0  0  0
   49.7449   56.4932   29.9945 C   0  0  0  0  0  0  0  0  0  0  0  0
   48.8442   57.4488   30.8476 C   0  0  1  0  0  0  0  0  0  0  0  0
   47.5641   56.9599   31.3469 O   0  0  0  0  0  0  0  0  0  0  0  0
   49.5089   58.1262   32.0786 C   0  0  1  0  0  0  0  0  0  0  0  0
   50.5509   59.0804   31.8359 O   0  0  0  0  0  0  0  0  0  0  0  0
   48.3266   58.5117   33.0207 C   0  0  1  0  0  0  0  0  0  0  0  0
   48.0176   59.8767   33.1695 O   0  0  0  0  0  0  0  0  0  0  0  0
   47.2198   57.5458   32.5862 C   0  0  2  0  0  0  0  0  0  0  0  0
   46.9977   55.6507   26.5593 O   0  0  0  0  0  0  0  0  0  0  0  0
   49.3151   53.9776   36.1026 N   0  0  0  0  0  0  0  0  0  0  0  0
   50.0114   54.8394   35.2474 C   0  0  0  0  0  0  0  0  0  0  0  0
   49.2781   55.7397   34.3604 N   0  0  0  0  0  0  0  0  0  0  0  0
   47.9088   55.7438   34.3649 C   0  0  0  0  0  0  0  0  0  0  0  0
   47.2158   54.8719   35.2273 C   0  0  0  0  0  0  0  0  0  0  0  0
   47.9472   53.9744   36.1105 C   0  0  0  0  0  0  0  0  0  0  0  0
   47.2290   53.0687   37.0078 N   0  0  0  0  0  0  0  0  0  0  0  0
   45.8022   55.0800   35.0285 N   0  0  0  0  0  0  0  0  0  0  0  0
   45.6486   56.0801   34.0397 C   0  0  0  0  0  0  0  0  0  0  0  0
   46.9414   56.5050   33.6178 N   0  0  0  0  0  0  0  0  0  0  0  0
  2  1  1  6  0  0  0
  2  3  1  0  0  0  0
  2  5  1  0  0  0  0
  3  4  1  0  0  0  0
  3 17  1  0  0  0  0
  5  6  1  0  0  0  0
  7  6  1  6  0  0  0
  7  8  1  0  0  0  0
  7  9  1  0  0  0  0
 10  9  1  1  0  0  0
 10 11  1  0  0  0  0
 10 12  1  0  0  0  0
 11 16  1  0  0  0  0
 12 13  1  6  0  0  0
 12 14  1  0  0  0  0
 14 15  1  6  0  0  0
 14 16  1  0  0  0  0
 16 27  1  1  0  0  0
 18 19  2  0  0  0  0
 18 23  1  0  0  0  0
 19 20  1  0  0  0  0
 20 21  2  0  0  0  0
 21 22  1  0  0  0  0
 21 27  1  0  0  0  0
 22 23  2  0  0  0  0
 22 25  1  0  0  0  0
 23 24  1  0  0  0  0
 25 26  2  0  0  0  0
 26 27  1  0  0  0  0
M  END
>  <CHROM.1>
127.28661050,-175.97861855,-68.63234252,-58.99069887,178.75866078,77.35616760
78.65838831,48.33873685,55.93400444,31.33156241,1.22631671,-1.27491693,-1.95813895

>  <Name>
ligand

>  <RI>
0

>  <Rbt.Current_Directory>
/home/itssahil/PROJECTS/Mol_Feturizer/New_Systems/rnas/3GX2

>  <Rbt.Executable>
rbdock ($Id: //depot/dev/client3/rdock/2013.1/src/exe/rbdock.cxx#4 $)

>  <Rbt.Library>
libRbt.so (2013.1, Build901 2013/11/27)

>  <Rbt.Parameter_File>
/export/apps/rDock/src/rDock_2013.1_src/data/scripts/dock_solv.prm

>  <Rbt.Receptor>
prm/pocket_docking_4.prm

>  <SCORE>
-8.30821

>  <SCORE.INTER>
-5.69441

>  <SCORE.INTER.CONST>
1

>  <SCORE.INTER.POLAR>
0

>  <SCORE.INTER.ROT>
7

>  <SCORE.INTER.SOLV>
15.088

>  <SCORE.INTER.VDW>
-17.0923

>  <SCORE.INTER.norm>
-0.210904

>  <SCORE.INTRA>
-2.6138

>  <SCORE.INTRA.DIHEDRAL>
-7.64601

>  <SCORE.INTRA.DIHEDRAL.0>
13.9704

>  <SCORE.INTRA.POLAR>
0

>  <SCORE.INTRA.POLAR.0>
0

>  <SCORE.INTRA.REPUL>
0

>  <SCORE.INTRA.REPUL.0>
0

>  <SCORE.INTRA.SOLV>
3.20076

>  <SCORE.INTRA.SOLV.lig_0>
-70.9758

>  <SCORE.INTRA.VDW>
-0.391176

>  <SCORE.INTRA.VDW.0>
-2.70686

>  <SCORE.INTRA.norm>
-0.0968073

>  <SCORE.RESTR>
0

>  <SCORE.RESTR.CAVITY>
0

>  <SCORE.RESTR.norm>
0

>  <SCORE.SYSTEM>
0

>  <SCORE.SYSTEM.CONST>
0

>  <SCORE.SYSTEM.DIHEDRAL>
0

>  <SCORE.SYSTEM.SOLV>
0

>  <SCORE.SYSTEM.norm>
0

>  <SCORE.heavy>
27

>  <SCORE.norm>
-0.307712

>  <RMSD>
5.000

$$$$
ligand
 OpenBabel11021811473D
libRbt.so/2013.1/901 2013/11/27
 27 29  0  0  0  0  0  0  0  0999 V2000
   49.8407   53.6113   27.1359 N   0  0  0  0  0  0  0  0  0  0  0  0
   48.6607   54.4582   26.9761 C   0  0  2  0  0  0  0  0  0  0  0  0
   47.5968   53.8734   26.0448 C   0  0  0  0  0  0  0  0  0  0  0  0
   47.9418   53.1589   25.1631 O   0  0  0  0  0  0  0  0  0  0  0  0
   48.9688   55.9412   26.6814 C   0  0  0  0  0  0  0  0  0  0  0  0
   49.6264   56.8181   27.7831 C   0  0  0  0  0  0  0  0  0  0  0  0
   48.7610   57.0753   29.0453 C   0  0  2  0  0  0  0  0  0  0  0  0
   48.5338   55.8658   29.8361 N   0  0  0  0  0  0  0  0  0  0  0  0
   47.4457   57.8444   28.7108 C   0  0  0  0  0  0  0  0  0  0  0  0
   46.4426   58.1515   29.8735 C   0  0  1  0  0  0  0  0  0  0  0  0
   45.9799   57.0572   30.7194 O   0  0  0  0  0  0  0  0  0  0  0  0
   46.8479   59.2711   30.8726 C   0  0  1  0  0  0  0  0  0  0  0  0
   46.9196   60.6149   30.3786 O   0  0  0  0  0  0  0  0  0  0  0  0
   46.0300   58.9780   32.1684 C   0  0  1  0  0  0  0  0  0  0  0  0
   44.9868   59.8605   32.5058 O   0  0  0  0  0  0  0  0  0  0  0  0
   45.7222   57.4826   32.0425 C   0  0  2  0  0  0  0  0  0  0  0  0
   46.2704   53.7865   26.5126 O   0  0  0  0  0  0  0  0  0  0  0  0
   45.4555   53.9763   36.1804 N   0  0  0  0  0  0  0  0  0  0  0  0
   44.3880   54.5447   35.4760 C   0  0  0  0  0  0  0  0  0  0  0  0
   44.6477   55.4776   34.3817 N   0  0  0  0  0  0  0  0  0  0  0  0
   45.9353   55.7964   34.0418 C   0  0  0  0  0  0  0  0  0  0  0  0
   47.0038   55.2212   34.7571 C   0  0  0  0  0  0  0  0  0  0  0  0
   46.7442   54.2923   35.8480 C   0  0  0  0  0  0  0  0  0  0  0  0
   47.8530   53.6930   36.5916 N   0  0  0  0  0  0  0  0  0  0  0  0
   48.2350   55.7247   34.1990 N   0  0  0  0  0  0  0  0  0  0  0  0
   47.9013   56.6082   33.1456 C   0  0  0  0  0  0  0  0  0  0  0  0
   46.4822   56.6643   33.0313 N   0  0  0  0  0  0  0  0  0  0  0  0
  2  1  1  6  0  0  0
  2  3  1  0  0  0  0
  2  5  1  0  0  0  0
  3  4  1  0  0  0  0
  3 17  1  0  0  0  0
  5  6  1  0  0  0  0
  7  6  1  6  0  0  0
  7  8  1  0  0  0  0
  7  9  1  0  0  0  0
 10  9  1  1  0  0  0
 10 11  1  0  0  0  0
 10 12  1  0  0  0  0
 11 16  1  0  0  0  0
 12 13  1  6  0  0  0
 12 14  1  0  0  0  0
 14 15  1  6  0  0  0
 14 16  1  0  0  0  0
 16 27  1  1  0  0  0
 18 19  2  0  0  0  0
 18 23  1  0  0  0  0
 19 20  1  0  0  0  0
 20 21  2  0  0  0  0
 21 22  1  0  0  0  0
 21 27  1  0  0  0  0
 22 23  2  0  0  0  0
 22 25  1  0  0  0  0
 23 24  1  0  0  0  0
 25 26  2  0  0  0  0
 26 27  1  0  0  0  0
M  END
>  <CHROM.1>
-29.41113428,-67.96439749,-65.87716383,67.46907012,178.49665704,-53.24462532
-116.01577619,47.08193231,56.16892664,30.99268765,-0.53669242,-1.26705337
2.50255121

>  <Name>
ligand

>  <RI>
0

>  <Rbt.Current_Directory>
/home/itssahil/PROJECTS/Mol_Feturizer/New_Systems/rnas/3GX2

>  <Rbt.Executable>
rbdock ($Id: //depot/dev/client3/rdock/2013.1/src/exe/rbdock.cxx#4 $)

>  <Rbt.Library>
libRbt.so (2013.1, Build901 2013/11/27)

>  <Rbt.Parameter_File>
/export/apps/rDock/src/rDock_2013.1_src/data/scripts/dock_solv.prm

>  <Rbt.Receptor>
prm/pocket_docking_5.prm

>  <SCORE>
-6.9095

>  <SCORE.INTER>
-4.6235

>  <SCORE.INTER.CONST>
1

>  <SCORE.INTER.POLAR>
0

>  <SCORE.INTER.ROT>
7

>  <SCORE.INTER.SOLV>
10.3374

>  <SCORE.INTER.VDW>
-14.7948

>  <SCORE.INTER.norm>
-0.171241

>  <SCORE.INTRA>
-2.28601

>  <SCORE.INTRA.DIHEDRAL>
-8.79284

>  <SCORE.INTRA.DIHEDRAL.0>
13.9704

>  <SCORE.INTRA.POLAR>
0

>  <SCORE.INTRA.POLAR.0>
0

>  <SCORE.INTRA.REPUL>
0

>  <SCORE.INTRA.REPUL.0>
0

>  <SCORE.INTRA.SOLV>
4.59686

>  <SCORE.INTRA.SOLV.lig_0>
-70.9758

>  <SCORE.INTRA.VDW>
-0.188017

>  <SCORE.INTRA.VDW.0>
-2.70686

>  <SCORE.INTRA.norm>
-0.084667

>  <SCORE.RESTR>
0

>  <SCORE.RESTR.CAVITY>
0

>  <SCORE.RESTR.norm>
0

>  <SCORE.SYSTEM>
0

>  <SCORE.SYSTEM.CONST>
0

>  <SCORE.SYSTEM.DIHEDRAL>
0

>  <SCORE.SYSTEM.SOLV>
0

>  <SCORE.SYSTEM.norm>
0

>  <SCORE.heavy>
27

>  <SCORE.norm>
-0.255908

>  <RMSD>
5.002

$$$$
ligand
 OpenBabel11021811473D
libRbt.so/2013.1/901 2013/11/27
 27 29  0  0  0  0  0  0  0  0999 V2000
   46.1794   58.5913   27.3248 N   0  0  0  0  0  0  0  0  0  0  0  0
   47.1761   57.6346   27.8005 C   0  0  2  0  0  0  0  0  0  0  0  0
   47.7620   56.7476   26.7000 C   0  0  0  0  0  0  0  0  0  0  0  0
   47.3856   56.8989   25.5854 O   0  0  0  0  0  0  0  0  0  0  0  0
   46.7569   56.8393   29.0547 C   0  0  0  0  0  0  0  0  0  0  0  0
   46.2055   57.6003   30.2925 C   0  0  0  0  0  0  0  0  0  0  0  0
   47.1169   58.7241   30.8535 C   0  0  2  0  0  0  0  0  0  0  0  0
   48.5040   58.6105   30.4027 N   0  0  0  0  0  0  0  0  0  0  0  0
   46.9858   58.8713   32.4008 C   0  0  0  0  0  0  0  0  0  0  0  0
   47.4415   57.6780   33.3068 C   0  0  1  0  0  0  0  0  0  0  0  0
   46.8815   56.3524   33.0695 O   0  0  0  0  0  0  0  0  0  0  0  0
   48.9718   57.4371   33.4328 C   0  0  1  0  0  0  0  0  0  0  0  0
   49.7541   58.4370   34.0986 O   0  0  0  0  0  0  0  0  0  0  0  0
   49.1164   55.9445   33.8634 C   0  0  1  0  0  0  0  0  0  0  0  0
   49.5557   55.6736   35.1728 O   0  0  0  0  0  0  0  0  0  0  0  0
   47.8009   55.3250   33.3814 C   0  0  2  0  0  0  0  0  0  0  0  0
   49.0185   56.1485   26.9192 O   0  0  0  0  0  0  0  0  0  0  0  0
   50.5227   54.3580   28.7832 N   0  0  0  0  0  0  0  0  0  0  0  0
   50.6707   55.4495   29.6467 C   0  0  0  0  0  0  0  0  0  0  0  0
   49.8464   55.5481   30.8491 N   0  0  0  0  0  0  0  0  0  0  0  0
   48.9288   54.5726   31.1348 C   0  0  0  0  0  0  0  0  0  0  0  0
   48.7849   53.4784   30.2595 C   0  0  0  0  0  0  0  0  0  0  0  0
   49.6062   53.3812   29.0610 C   0  0  0  0  0  0  0  0  0  0  0  0
   49.4588   52.2448   28.1509 N   0  0  0  0  0  0  0  0  0  0  0  0
   47.7611   52.6134   30.7930 N   0  0  0  0  0  0  0  0  0  0  0  0
   47.2879   53.1947   31.9929 C   0  0  0  0  0  0  0  0  0  0  0  0
   48.0000   54.4072   32.2226 N   0  0  0  0  0  0  0  0  0  0  0  0
  2  1  1  6  0  0  0
  2  3  1  0  0  0  0
  2  5  1  0  0  0  0
  3  4  1  0  0  0  0
  3 17  1  0  0  0  0
  5  6  1  0  0  0  0
  7  6  1  1  0  0  0
  7  8  1  0  0  0  0
  7  9  1  0  0  0  0
 10  9  1  6  0  0  0
 10 11  1  0  0  0  0
 10 12  1  0  0  0  0
 11 16  1  0  0  0  0
 12 13  1  1  0  0  0
 12 14  1  0  0  0  0
 14 15  1  1  0  0  0
 14 16  1  0  0  0  0
 16 27  1  6  0  0  0
 18 19  2  0  0  0  0
 18 23  1  0  0  0  0
 19 20  1  0  0  0  0
 20 21  2  0  0  0  0
 21 22  1  0  0  0  0
 21 27  1  0  0  0  0
 22 23  2  0  0  0  0
 22 25  1  0  0  0  0
 23 24  1  0  0  0  0
 25 26  2  0  0  0  0
 26 27  1  0  0  0  0
M  END
>  <CHROM.1>
0.36468417,-50.07221713,-54.79934608,-18.08268166,64.35431706,-54.34514955
86.21887469,48.26914097,56.08128209,30.61441436,1.77048320,1.18266304,-1.81855529

>  <Name>
ligand

>  <RI>
0

>  <Rbt.Current_Directory>
/home/itssahil/PROJECTS/Mol_Feturizer/New_Systems/rnas/3GX2

>  <Rbt.Executable>
rbdock ($Id: //depot/dev/client3/rdock/2013.1/src/exe/rbdock.cxx#4 $)

>  <Rbt.Library>
libRbt.so (2013.1, Build901 2013/11/27)

>  <Rbt.Parameter_File>
/export/apps/rDock/src/rDock_2013.1_src/data/scripts/dock_solv.prm

>  <Rbt.Receptor>
prm/pocket_docking_2.prm

>  <SCORE>
-4.85281

>  <SCORE.INTER>
-3.99076

>  <SCORE.INTER.CONST>
1

>  <SCORE.INTER.POLAR>
0

>  <SCORE.INTER.ROT>
7

>  <SCORE.INTER.SOLV>
18.1759

>  <SCORE.INTER.VDW>
-16.9858

>  <SCORE.INTER.norm>
-0.147806

>  <SCORE.INTRA>
-1.31908

>  <SCORE.INTRA.DIHEDRAL>
-4.37606

>  <SCORE.INTRA.DIHEDRAL.0>
13.9704

>  <SCORE.INTRA.POLAR>
0

>  <SCORE.INTRA.POLAR.0>
0

>  <SCORE.INTRA.REPUL>
0

>  <SCORE.INTRA.REPUL.0>
0

>  <SCORE.INTRA.SOLV>
5.75926

>  <SCORE.INTRA.SOLV.lig_0>
-70.9758

>  <SCORE.INTRA.VDW>
-2.01068

>  <SCORE.INTRA.VDW.0>
-2.70686

>  <SCORE.INTRA.norm>
-0.0488548

>  <SCORE.RESTR>
0.457031

>  <SCORE.RESTR.CAVITY>
0.457031

>  <SCORE.RESTR.norm>
0.0169271

>  <SCORE.SYSTEM>
0

>  <SCORE.SYSTEM.CONST>
0

>  <SCORE.SYSTEM.DIHEDRAL>
0

>  <SCORE.SYSTEM.SOLV>
0

>  <SCORE.SYSTEM.norm>
0

>  <SCORE.heavy>
27

>  <SCORE.norm>
-0.179734

>  <RMSD>
5.007

$$$$
ligand
 OpenBabel11021811473D
libRbt.so/2013.1/901 2013/11/27
 27 29  0  0  0  0  0  0  0  0999 V2000
   50.5519   54.4594   30.0442 N   0  0  0  0  0  0  0  0  0  0  0  0
   50.3821   54.6613   28.6070 C   0  0  2  0  0  0  0  0  0  0  0  0
   51.6806   54.5492   27.8053 C   0  0  0  0  0  0  0  0  0  0  0  0
   52.4168   55.4788   27.7803 O   0  0  0  0  0  0  0  0  0  0  0  0
   49.5449   55.9003   28.2261 C   0  0  0  0  0  0  0  0  0  0  0  0
   48.0943   56.0373   28.7664 C   0  0  0  0  0  0  0  0  0  0  0  0
   47.2624   57.2060   28.1743 C   0  0  2  0  0  0  0  0  0  0  0  0
   47.0520   57.0817   26.7320 N   0  0  0  0  0  0  0  0  0  0  0  0
   47.8235   58.5998   28.5936 C   0  0  0  0  0  0  0  0  0  0  0  0
   47.6855   59.0424   30.0894 C   0  0  1  0  0  0  0  0  0  0  0  0
   46.3601   59.0904   30.6961 O   0  0  0  0  0  0  0  0  0  0  0  0
   48.5618   58.2880   31.1281 C   0  0  1  0  0  0  0  0  0  0  0  0
   49.9834   58.4571   31.0530 O   0  0  0  0  0  0  0  0  0  0  0  0
   47.8411   58.4931   32.4965 C   0  0  1  0  0  0  0  0  0  0  0  0
   48.4568   59.3252   33.4501 O   0  0  0  0  0  0  0  0  0  0  0  0
   46.3981   58.7906   32.0769 C   0  0  2  0  0  0  0  0  0  0  0  0
   52.1958   53.2649   27.5391 O   0  0  0  0  0  0  0  0  0  0  0  0
   45.6357   54.2427   34.9445 N   0  0  0  0  0  0  0  0  0  0  0  0
   46.7723   55.0593   34.9295 C   0  0  0  0  0  0  0  0  0  0  0  0
   46.8031   56.2549   34.0900 N   0  0  0  0  0  0  0  0  0  0  0  0
   45.7201   56.5801   33.3178 C   0  0  0  0  0  0  0  0  0  0  0  0
   44.5809   55.7518   33.3373 C   0  0  0  0  0  0  0  0  0  0  0  0
   44.5512   54.5601   34.1735 C   0  0  0  0  0  0  0  0  0  0  0  0
   43.3683   53.6989   34.1959 N   0  0  0  0  0  0  0  0  0  0  0  0
   43.6024   56.3197   32.4423 N   0  0  0  0  0  0  0  0  0  0  0  0
   44.1603   57.4930   31.8821 C   0  0  0  0  0  0  0  0  0  0  0  0
   45.4702   57.6722   32.4132 N   0  0  0  0  0  0  0  0  0  0  0  0
  2  1  1  1  0  0  0
  2  3  1  0  0  0  0
  2  5  1  0  0  0  0
  3  4  1  0  0  0  0
  3 17  1  0  0  0  0
  5  6  1  0  0  0  0
  7  6  1  6  0  0  0
  7  8  1  0  0  0  0
  7  9  1  0  0  0  0
 10  9  1  6  0  0  0
 10 11  1  0  0  0  0
 10 12  1  0  0  0  0
 11 16  1  0  0  0  0
 12 13  1  1  0  0  0
 12 14  1  0  0  0  0
 14 15  1  6  0  0  0
 14 16  1  0  0  0  0
 16 27  1  6  0  0  0
 18 19  2  0  0  0  0
 18 23  1  0  0  0  0
 19 20  1  0  0  0  0
 20 21  2  0  0  0  0
 21 22  1  0  0  0  0
 21 27  1  0  0  0  0
 22 23  2  0  0  0  0
 22 25  1  0  0  0  0
 23 24  1  0  0  0  0
 25 26  2  0  0  0  0
 26 27  1  0  0  0  0
M  END
>  <CHROM.1>
-80.05258723,-57.43418507,-171.68802423,62.35487095,-69.52139912,-56.98919096
138.92644936,47.62481044,56.55086044,31.00007783,-0.18278776,-0.76182570
2.76375710

>  <Name>
ligand

>  <RI>
0

>  <Rbt.Current_Directory>
/home/itssahil/PROJECTS/Mol_Feturizer/New_Systems/rnas/3GX2

>  <Rbt.Executable>
rbdock ($Id: //depot/dev/client3/rdock/2013.1/src/exe/rbdock.cxx#4 $)

>  <Rbt.Library>
libRbt.so (2013.1, Build901 2013/11/27)

>  <Rbt.Parameter_File>
/export/apps/rDock/src/rDock_2013.1_src/data/scripts/dock_solv.prm

>  <Rbt.Receptor>
prm/pocket_docking_5.prm

>  <SCORE>
-10.5377

>  <SCORE.INTER>
-6.90975

>  <SCORE.INTER.CONST>
1

>  <SCORE.INTER.POLAR>
0

>  <SCORE.INTER.ROT>
7

>  <SCORE.INTER.SOLV>
16.4925

>  <SCORE.INTER.VDW>
-18.3707

>  <SCORE.INTER.norm>
-0.255916

>  <SCORE.INTRA>
-3.62792

>  <SCORE.INTRA.DIHEDRAL>
-8.52378

>  <SCORE.INTRA.DIHEDRAL.0>
13.9704

>  <SCORE.INTRA.POLAR>
0

>  <SCORE.INTRA.POLAR.0>
0

>  <SCORE.INTRA.REPUL>
0

>  <SCORE.INTRA.REPUL.0>
0

>  <SCORE.INTRA.SOLV>
0.670947

>  <SCORE.INTRA.SOLV.lig_0>
-70.9758

>  <SCORE.INTRA.VDW>
0.298502

>  <SCORE.INTRA.VDW.0>
-2.70686

>  <SCORE.INTRA.norm>
-0.134367

>  <SCORE.RESTR>
0

>  <SCORE.RESTR.CAVITY>
0

>  <SCORE.RESTR.norm>
0

>  <SCORE.SYSTEM>
0

>  <SCORE.SYSTEM.CONST>
0

>  <SCORE.SYSTEM.DIHEDRAL>
0

>  <SCORE.SYSTEM.SOLV>
0

>  <SCORE.SYSTEM.norm>
0

>  <SCORE.heavy>
27

>  <SCORE.norm>
-0.390284

>  <RMSD>
5.009

$$$$
ligand
 OpenBabel11021811473D
libRbt.so/2013.1/901 2013/11/27
 27 29  0  0  0  0  0  0  0  0999 V2000
   50.7881   54.1085   27.0113 N   0  0  0  0  0  0  0  0  0  0  0  0
   49.3837   54.4704   26.8331 C   0  0  2  0  0  0  0  0  0  0  0  0
   49.0434   54.9698   25.4274 C   0  0  0  0  0  0  0  0  0  0  0  0
   48.5573   54.2117   24.6555 O   0  0  0  0  0  0  0  0  0  0  0  0
   48.8044   55.3676   27.9469 C   0  0  0  0  0  0  0  0  0  0  0  0
   49.5916   56.6294   28.3978 C   0  0  0  0  0  0  0  0  0  0  0  0
   48.9200   57.4815   29.5075 C   0  0  2  0  0  0  0  0  0  0  0  0
   48.4470   56.6779   30.6346 N   0  0  0  0  0  0  0  0  0  0  0  0
   47.8280   58.4377   28.9360 C   0  0  0  0  0  0  0  0  0  0  0  0
   46.6861   58.9243   29.8907 C   0  0  1  0  0  0  0  0  0  0  0  0
   45.7321   57.9510   30.4101 O   0  0  0  0  0  0  0  0  0  0  0  0
   47.1162   59.7499   31.1354 C   0  0  1  0  0  0  0  0  0  0  0  0
   47.6878   61.0458   30.9139 O   0  0  0  0  0  0  0  0  0  0  0  0
   45.9425   59.5982   32.1519 C   0  0  1  0  0  0  0  0  0  0  0  0
   45.1388   60.7251   32.4071 O   0  0  0  0  0  0  0  0  0  0  0  0
   45.2707   58.2975   31.7004 C   0  0  2  0  0  0  0  0  0  0  0  0
   48.8551   56.3529   25.2342 O   0  0  0  0  0  0  0  0  0  0  0  0
   48.7548   55.8155   35.0453 N   0  0  0  0  0  0  0  0  0  0  0  0
   48.9945   56.9411   34.2487 C   0  0  0  0  0  0  0  0  0  0  0  0
   47.9314   57.4778   33.4020 N   0  0  0  0  0  0  0  0  0  0  0  0
   46.6984   56.8824   33.3872 C   0  0  0  0  0  0  0  0  0  0  0  0
   46.4662   55.7489   34.1905 C   0  0  0  0  0  0  0  0  0  0  0  0
   47.5263   55.2141   35.0335 C   0  0  0  0  0  0  0  0  0  0  0  0
   47.2866   54.0371   35.8695 N   0  0  0  0  0  0  0  0  0  0  0  0
   45.1019   55.3286   33.9833 N   0  0  0  0  0  0  0  0  0  0  0  0
   44.5152   56.2141   33.0488 C   0  0  0  0  0  0  0  0  0  0  0  0
   45.4872   57.1843   32.6693 N   0  0  0  0  0  0  0  0  0  0  0  0
  2  1  1  6  0  0  0
  2  3  1  0  0  0  0
  2  5  1  0  0  0  0
  3  4  1  0  0  0  0
  3 17  1  0  0  0  0
  5  6  1  0  0  0  0
  7  6  1  6  0  0  0
  7  8  1  0  0  0  0
  7  9  1  0  0  0  0
 10  9  1  1  0  0  0
 10 11  1  0  0  0  0
 10 12  1  0  0  0  0
 11 16  1  0  0  0  0
 12 13  1  6  0  0  0
 12 14  1  0  0  0  0
 14 15  1  6  0  0  0
 14 16  1  0  0  0  0
 16 27  1  1  0  0  0
 18 19  2  0  0  0  0
 18 23  1  0  0  0  0
 19 20  1  0  0  0  0
 20 21  2  0  0  0  0
 21 22  1  0  0  0  0
 21 27  1  0  0  0  0
 22 23  2  0  0  0  0
 22 25  1  0  0  0  0
 23 24  1  0  0  0  0
 25 26  2  0  0  0  0
 26 27  1  0  0  0  0
M  END
>  <CHROM.1>
98.58781173,48.37123095,179.07438270,48.00486421,155.75157841,-65.84030763
83.11109856,47.51218299,56.91880614,30.77546601,-0.74890274,-1.11398513,2.11918522

>  <Name>
ligand

>  <RI>
0

>  <Rbt.Current_Directory>
/home/itssahil/PROJECTS/Mol_Feturizer/New_Systems/rnas/3GX2

>  <Rbt.Executable>
rbdock ($Id: //depot/dev/client3/rdock/2013.1/src/exe/rbdock.cxx#4 $)

>  <Rbt.Library>
libRbt.so (2013.1, Build901 2013/11/27)

>  <Rbt.Parameter_File>
/export/apps/rDock/src/rDock_2013.1_src/data/scripts/dock_solv.prm

>  <Rbt.Receptor>
prm/pocket_docking_4.prm

>  <SCORE>
-8.97171

>  <SCORE.INTER>
-7.52739

>  <SCORE.INTER.CONST>
1

>  <SCORE.INTER.POLAR>
0

>  <SCORE.INTER.ROT>
7

>  <SCORE.INTER.SOLV>
11.1711

>  <SCORE.INTER.VDW>
-17.0086

>  <SCORE.INTER.norm>
-0.278792

>  <SCORE.INTRA>
-1.44432

>  <SCORE.INTRA.DIHEDRAL>
-6.4337

>  <SCORE.INTRA.DIHEDRAL.0>
13.9704

>  <SCORE.INTRA.POLAR>
0

>  <SCORE.INTRA.POLAR.0>
0

>  <SCORE.INTRA.REPUL>
0

>  <SCORE.INTRA.REPUL.0>
0

>  <SCORE.INTRA.SOLV>
4.58248

>  <SCORE.INTRA.SOLV.lig_0>
-70.9758

>  <SCORE.INTRA.VDW>
-0.51871

>  <SCORE.INTRA.VDW.0>
-2.70686

>  <SCORE.INTRA.norm>
-0.0534934

>  <SCORE.RESTR>
0

>  <SCORE.RESTR.CAVITY>
0

>  <SCORE.RESTR.norm>
0

>  <SCORE.SYSTEM>
0

>  <SCORE.SYSTEM.CONST>
0

>  <SCORE.SYSTEM.DIHEDRAL>
0

>  <SCORE.SYSTEM.SOLV>
0

>  <SCORE.SYSTEM.norm>
0

>  <SCORE.heavy>
27

>  <SCORE.norm>
-0.332285

>  <RMSD>
5.017

$$$$
ligand
 OpenBabel11021811473D
libRbt.so/2013.1/901 2013/11/27
 27 29  0  0  0  0  0  0  0  0999 V2000
   48.4359   60.6091   31.7608 N   0  0  0  0  0  0  0  0  0  0  0  0
   49.0001   59.3823   31.2026 C   0  0  2  0  0  0  0  0  0  0  0  0
   48.2109   58.8164   30.0201 C   0  0  0  0  0  0  0  0  0  0  0  0
   47.1446   59.2745   29.7753 O   0  0  0  0  0  0  0  0  0  0  0  0
   49.3682   58.3096   32.2489 C   0  0  0  0  0  0  0  0  0  0  0  0
   48.3111   57.8759   33.3023 C   0  0  0  0  0  0  0  0  0  0  0  0
   46.8940   57.5703   32.7484 C   0  0  2  0  0  0  0  0  0  0  0  0
   46.1390   58.7790   32.4180 N   0  0  0  0  0  0  0  0  0  0  0  0
   46.1035   56.5855   33.6641 C   0  0  0  0  0  0  0  0  0  0  0  0
   46.5516   55.0857   33.7120 C   0  0  1  0  0  0  0  0  0  0  0  0
   46.5875   54.3157   32.4739 O   0  0  0  0  0  0  0  0  0  0  0  0
   47.9123   54.7816   34.3989 C   0  0  1  0  0  0  0  0  0  0  0  0
   48.0163   55.0135   35.8098 O   0  0  0  0  0  0  0  0  0  0  0  0
   48.3655   53.4068   33.8171 C   0  0  1  0  0  0  0  0  0  0  0  0
   48.3472   52.2886   34.6716 O   0  0  0  0  0  0  0  0  0  0  0  0
   47.6055   53.3352   32.4889 C   0  0  2  0  0  0  0  0  0  0  0  0
   48.9180   58.1523   28.9980 O   0  0  0  0  0  0  0  0  0  0  0  0
   48.0633   54.7754   27.2732 N   0  0  0  0  0  0  0  0  0  0  0  0
   46.9107   54.8049   28.0665 C   0  0  0  0  0  0  0  0  0  0  0  0
   46.9721   54.3767   29.4622 N   0  0  0  0  0  0  0  0  0  0  0  0
   48.1571   53.9474   29.9976 C   0  0  0  0  0  0  0  0  0  0  0  0
   49.3120   53.9191   29.1917 C   0  0  0  0  0  0  0  0  0  0  0  0
   49.2499   54.3453   27.8006 C   0  0  0  0  0  0  0  0  0  0  0  0
   50.4489   54.3175   26.9621 N   0  0  0  0  0  0  0  0  0  0  0  0
   50.4045   53.4299   29.9967 N   0  0  0  0  0  0  0  0  0  0  0  0
   49.8998   53.1614   31.2908 C   0  0  0  0  0  0  0  0  0  0  0  0
   48.5107   53.4773   31.3119 N   0  0  0  0  0  0  0  0  0  0  0  0
  2  1  1  1  0  0  0
  2  3  1  0  0  0  0
  2  5  1  0  0  0  0
  3  4  1  0  0  0  0
  3 17  1  0  0  0  0
  5  6  1  0  0  0  0
  7  6  1  1  0  0  0
  7  8  1  0  0  0  0
  7  9  1  0  0  0  0
 10  9  1  6  0  0  0
 10 11  1  0  0  0  0
 10 12  1  0  0  0  0
 11 16  1  0  0  0  0
 12 13  1  1  0  0  0
 12 14  1  0  0  0  0
 14 15  1  1  0  0  0
 14 16  1  0  0  0  0
 16 27  1  6  0  0  0
 18 19  2  0  0  0  0
 18 23  1  0  0  0  0
 19 20  1  0  0  0  0
 20 21  2  0  0  0  0
 21 22  1  0  0  0  0
 21 27  1  0  0  0  0
 22 23  2  0  0  0  0
 22 25  1  0  0  0  0
 23 24  1  0  0  0  0
 25 26  2  0  0  0  0
 26 27  1  0  0  0  0
M  END
>  <CHROM.1>
-10.49918240,51.56805445,46.88082607,-75.94050906,-71.06703777,-57.71959618
-31.92597145,48.12446349,55.75029404,31.34930657,2.61416170,-1.31884214,2.63926073

>  <Name>
ligand

>  <RI>
0

>  <Rbt.Current_Directory>
/home/itssahil/PROJECTS/Mol_Feturizer/New_Systems/rnas/3GX2

>  <Rbt.Executable>
rbdock ($Id: //depot/dev/client3/rdock/2013.1/src/exe/rbdock.cxx#4 $)

>  <Rbt.Library>
libRbt.so (2013.1, Build901 2013/11/27)

>  <Rbt.Parameter_File>
/export/apps/rDock/src/rDock_2013.1_src/data/scripts/dock_solv.prm

>  <Rbt.Receptor>
prm/pocket_docking_3.prm

>  <SCORE>
-8.04082

>  <SCORE.INTER>
-6.42732

>  <SCORE.INTER.CONST>
1

>  <SCORE.INTER.POLAR>
0

>  <SCORE.INTER.ROT>
7

>  <SCORE.INTER.SOLV>
15.2603

>  <SCORE.INTER.VDW>
-17.6383

>  <SCORE.INTER.norm>
-0.238049

>  <SCORE.INTRA>
-1.6135

>  <SCORE.INTRA.DIHEDRAL>
-6.97247

>  <SCORE.INTRA.DIHEDRAL.0>
13.9704

>  <SCORE.INTRA.POLAR>
0

>  <SCORE.INTRA.POLAR.0>
0

>  <SCORE.INTRA.REPUL>
0

>  <SCORE.INTRA.REPUL.0>
0

>  <SCORE.INTRA.SOLV>
5.76492

>  <SCORE.INTRA.SOLV.lig_0>
-70.9758

>  <SCORE.INTRA.VDW>
-1.00972

>  <SCORE.INTRA.VDW.0>
-2.70686

>  <SCORE.INTRA.norm>
-0.0597593

>  <SCORE.RESTR>
0

>  <SCORE.RESTR.CAVITY>
0

>  <SCORE.RESTR.norm>
0

>  <SCORE.SYSTEM>
0

>  <SCORE.SYSTEM.CONST>
0

>  <SCORE.SYSTEM.DIHEDRAL>
0

>  <SCORE.SYSTEM.SOLV>
0

>  <SCORE.SYSTEM.norm>
0

>  <SCORE.heavy>
27

>  <SCORE.norm>
-0.297808

>  <RMSD>
5.022

$$$$
ligand
 OpenBabel11021811483D
libRbt.so/2013.1/901 2013/11/27
 27 29  0  0  0  0  0  0  0  0999 V2000
   49.4076   55.9011   26.1449 N   0  0  0  0  0  0  0  0  0  0  0  0
   50.7154   55.3532   26.4981 C   0  0  2  0  0  0  0  0  0  0  0  0
   51.3844   54.5642   25.3706 C   0  0  0  0  0  0  0  0  0  0  0  0
   50.7014   54.0840   24.5282 O   0  0  0  0  0  0  0  0  0  0  0  0
   50.7600   54.6193   27.8547 C   0  0  0  0  0  0  0  0  0  0  0  0
   50.3114   55.3657   29.1419 C   0  0  0  0  0  0  0  0  0  0  0  0
   50.1615   54.4872   30.4124 C   0  0  2  0  0  0  0  0  0  0  0  0
   49.1032   53.4847   30.2899 N   0  0  0  0  0  0  0  0  0  0  0  0
   50.0460   55.3442   31.7107 C   0  0  0  0  0  0  0  0  0  0  0  0
   48.9091   56.4175   31.7997 C   0  0  1  0  0  0  0  0  0  0  0  0
   47.5203   55.9934   31.6639 O   0  0  0  0  0  0  0  0  0  0  0  0
   48.9132   57.3419   33.0492 C   0  0  1  0  0  0  0  0  0  0  0  0
   50.0008   58.2643   33.1958 O   0  0  0  0  0  0  0  0  0  0  0  0
   47.4485   57.8643   33.1757 C   0  0  1  0  0  0  0  0  0  0  0  0
   47.2039   59.2215   32.8946 O   0  0  0  0  0  0  0  0  0  0  0  0
   46.6436   56.7971   32.4275 C   0  0  2  0  0  0  0  0  0  0  0  0
   52.7396   54.8224   25.0838 O   0  0  0  0  0  0  0  0  0  0  0  0
   46.5316   53.7387   36.9131 N   0  0  0  0  0  0  0  0  0  0  0  0
   47.6364   54.3930   36.3561 C   0  0  0  0  0  0  0  0  0  0  0  0
   47.4816   55.1789   35.1341 N   0  0  0  0  0  0  0  0  0  0  0  0
   46.2557   55.2786   34.5321 C   0  0  0  0  0  0  0  0  0  0  0  0
   45.1495   54.6154   35.0982 C   0  0  0  0  0  0  0  0  0  0  0  0
   45.3046   53.8318   36.3157 C   0  0  0  0  0  0  0  0  0  0  0  0
   44.1563   53.1429   36.9059 N   0  0  0  0  0  0  0  0  0  0  0  0
   43.9985   54.8844   34.2713 N   0  0  0  0  0  0  0  0  0  0  0  0
   44.4190   55.7110   33.2029 C   0  0  0  0  0  0  0  0  0  0  0  0
   45.8130   55.9677   33.3478 N   0  0  0  0  0  0  0  0  0  0  0  0
  2  1  1  6  0  0  0
  2  3  1  0  0  0  0
  2  5  1  0  0  0  0
  3  4  1  0  0  0  0
  3 17  1  0  0  0  0
  5  6  1  0  0  0  0
  7  6  1  6  0  0  0
  7  8  1  0  0  0  0
  7  9  1  0  0  0  0
 10  9  1  1  0  0  0
 10 11  1  0  0  0  0
 10 12  1  0  0  0  0
 11 16  1  0  0  0  0
 12 13  1  6  0  0  0
 12 14  1  0  0  0  0
 14 15  1  6  0  0  0
 14 16  1  0  0  0  0
 16 27  1  1  0  0  0
 18 19  2  0  0  0  0
 18 23  1  0  0  0  0
 19 20  1  0  0  0  0
 20 21  2  0  0  0  0
 21 22  1  0  0  0  0
 21 27  1  0  0  0  0
 22 23  2  0  0  0  0
 22 25  1  0  0  0  0
 23 24  1  0  0  0  0
 25 26  2  0  0  0  0
 26 27  1  0  0  0  0
M  END
>  <CHROM.1>
-24.26289293,-55.96760140,170.08775743,-64.39603314,56.28492539,58.65275739
71.42849544,48.18530962,55.46529160,31.62640456,0.48518263,-0.96754914,-2.58517279

>  <Name>
ligand

>  <RI>
0

>  <Rbt.Current_Directory>
/home/itssahil/PROJECTS/Mol_Feturizer/New_Systems/rnas/3GX2

>  <Rbt.Executable>
rbdock ($Id: //depot/dev/client3/rdock/2013.1/src/exe/rbdock.cxx#4 $)

>  <Rbt.Library>
libRbt.so (2013.1, Build901 2013/11/27)

>  <Rbt.Parameter_File>
/export/apps/rDock/src/rDock_2013.1_src/data/scripts/dock_solv.prm

>  <Rbt.Receptor>
prm/pocket_docking_8.prm

>  <SCORE>
-10.879

>  <SCORE.INTER>
-6.88192

>  <SCORE.INTER.CONST>
1

>  <SCORE.INTER.POLAR>
0

>  <SCORE.INTER.ROT>
7

>  <SCORE.INTER.SOLV>
11.1789

>  <SCORE.INTER.VDW>
-16.5809

>  <SCORE.INTER.norm>
-0.254886

>  <SCORE.INTRA>
-3.99703

>  <SCORE.INTRA.DIHEDRAL>
-8.95676

>  <SCORE.INTRA.DIHEDRAL.0>
13.9704

>  <SCORE.INTRA.POLAR>
0

>  <SCORE.INTRA.POLAR.0>
0

>  <SCORE.INTRA.REPUL>
0

>  <SCORE.INTRA.REPUL.0>
0

>  <SCORE.INTRA.SOLV>
1.19621

>  <SCORE.INTRA.SOLV.lig_0>
-70.9758

>  <SCORE.INTRA.VDW>
-0.116754

>  <SCORE.INTRA.VDW.0>
-2.70686

>  <SCORE.INTRA.norm>
-0.148038

>  <SCORE.RESTR>
0

>  <SCORE.RESTR.CAVITY>
0

>  <SCORE.RESTR.norm>
0

>  <SCORE.SYSTEM>
0

>  <SCORE.SYSTEM.CONST>
0

>  <SCORE.SYSTEM.DIHEDRAL>
0

>  <SCORE.SYSTEM.SOLV>
0

>  <SCORE.SYSTEM.norm>
0

>  <SCORE.heavy>
27

>  <SCORE.norm>
-0.402924

>  <RMSD>
5.028

$$$$
ligand
 OpenBabel11021811483D
libRbt.so/2013.1/901 2013/11/27
 27 29  0  0  0  0  0  0  0  0999 V2000
   48.4017   55.2925   27.8618 N   0  0  0  0  0  0  0  0  0  0  0  0
   48.2210   55.9506   26.5698 C   0  0  2  0  0  0  0  0  0  0  0  0
   49.2899   55.5937   25.5348 C   0  0  0  0  0  0  0  0  0  0  0  0
   49.0922   55.8608   24.3962 O   0  0  0  0  0  0  0  0  0  0  0  0
   47.9468   57.4669   26.6533 C   0  0  0  0  0  0  0  0  0  0  0  0
   46.6440   57.9710   27.3341 C   0  0  0  0  0  0  0  0  0  0  0  0
   46.5501   57.7371   28.8655 C   0  0  2  0  0  0  0  0  0  0  0  0
   45.1752   57.7736   29.3637 N   0  0  0  0  0  0  0  0  0  0  0  0
   47.5157   58.6666   29.6635 C   0  0  0  0  0  0  0  0  0  0  0  0
   47.6227   58.4789   31.2145 C   0  0  1  0  0  0  0  0  0  0  0  0
   46.4066   58.5106   32.0190 O   0  0  0  0  0  0  0  0  0  0  0  0
   48.3898   57.2244   31.7182 C   0  0  1  0  0  0  0  0  0  0  0  0
   49.7985   57.1536   31.4618 O   0  0  0  0  0  0  0  0  0  0  0  0
   47.8655   56.9793   33.1670 C   0  0  1  0  0  0  0  0  0  0  0  0
   48.7435   57.2271   34.2388 O   0  0  0  0  0  0  0  0  0  0  0  0
   46.4999   57.6732   33.1539 C   0  0  2  0  0  0  0  0  0  0  0  0
   50.6180   55.4228   25.9737 O   0  0  0  0  0  0  0  0  0  0  0  0
   44.4440   53.2321   35.5070 N   0  0  0  0  0  0  0  0  0  0  0  0
   45.6542   53.8698   35.8031 C   0  0  0  0  0  0  0  0  0  0  0  0
   46.0522   55.0644   35.0618 N   0  0  0  0  0  0  0  0  0  0  0  0
   45.2417   55.5637   34.0774 C   0  0  0  0  0  0  0  0  0  0  0  0
   44.0264   54.9148   33.7845 C   0  0  0  0  0  0  0  0  0  0  0  0
   43.6308   53.7238   34.5231 C   0  0  0  0  0  0  0  0  0  0  0  0
   42.3681   53.0488   34.2208 N   0  0  0  0  0  0  0  0  0  0  0  0
   43.3798   55.6409   32.7188 N   0  0  0  0  0  0  0  0  0  0  0  0
   44.2143   56.7289   32.3704 C   0  0  0  0  0  0  0  0  0  0  0  0
   45.3710   56.6994   33.2016 N   0  0  0  0  0  0  0  0  0  0  0  0
  2  1  1  1  0  0  0
  2  3  1  0  0  0  0
  2  5  1  0  0  0  0
  3  4  1  0  0  0  0
  3 17  1  0  0  0  0
  5  6  1  0  0  0  0
  7  6  1  6  0  0  0
  7  8  1  0  0  0  0
  7  9  1  0  0  0  0
 10  9  1  6  0  0  0
 10 11  1  0  0  0  0
 10 12  1  0  0  0  0
 11 16  1  0  0  0  0
 12 13  1  1  0  0  0
 12 14  1  0  0  0  0
 14 15  1  1  0  0  0
 14 16  1  0  0  0  0
 16 27  1  6  0  0  0
 18 19  2  0  0  0  0
 18 23  1  0  0  0  0
 19 20  1  0  0  0  0
 20 21  2  0  0  0  0
 21 22  1  0  0  0  0
 21 27  1  0  0  0  0
 22 23  2  0  0  0  0
 22 25  1  0  0  0  0
 23 24  1  0  0  0  0
 25 26  2  0  0  0  0
 26 27  1  0  0  0  0
M  END
>  <CHROM.1>
165.43237054,-64.38359314,67.73296628,-159.30634430,-175.36703523,-53.78767343
169.41515662,46.73212442,56.31213188,31.02725430,0.95756713,-0.68893457,-1.79047176

>  <Name>
ligand

>  <RI>
0

>  <Rbt.Current_Directory>
/home/itssahil/PROJECTS/Mol_Feturizer/New_Systems/rnas/3GX2

>  <Rbt.Executable>
rbdock ($Id: //depot/dev/client3/rdock/2013.1/src/exe/rbdock.cxx#4 $)

>  <Rbt.Library>
libRbt.so (2013.1, Build901 2013/11/27)

>  <Rbt.Parameter_File>
/export/apps/rDock/src/rDock_2013.1_src/data/scripts/dock_solv.prm

>  <Rbt.Receptor>
prm/pocket_docking_8.prm

>  <SCORE>
-10.6486

>  <SCORE.INTER>
-8.63773

>  <SCORE.INTER.CONST>
1

>  <SCORE.INTER.POLAR>
0

>  <SCORE.INTER.ROT>
7

>  <SCORE.INTER.SOLV>
8.99778

>  <SCORE.INTER.VDW>
-17.0244

>  <SCORE.INTER.norm>
-0.319916

>  <SCORE.INTRA>
-2.01085

>  <SCORE.INTRA.DIHEDRAL>
-7.29479

>  <SCORE.INTRA.DIHEDRAL.0>
13.9704

>  <SCORE.INTRA.POLAR>
0

>  <SCORE.INTRA.POLAR.0>
0

>  <SCORE.INTRA.REPUL>
0

>  <SCORE.INTRA.REPUL.0>
0

>  <SCORE.INTRA.SOLV>
3.77573

>  <SCORE.INTRA.SOLV.lig_0>
-70.9758

>  <SCORE.INTRA.VDW>
-0.251323

>  <SCORE.INTRA.VDW.0>
-2.70686

>  <SCORE.INTRA.norm>
-0.0744759

>  <SCORE.RESTR>
0

>  <SCORE.RESTR.CAVITY>
0

>  <SCORE.RESTR.norm>
0

>  <SCORE.SYSTEM>
0

>  <SCORE.SYSTEM.CONST>
0

>  <SCORE.SYSTEM.DIHEDRAL>
0

>  <SCORE.SYSTEM.SOLV>
0

>  <SCORE.SYSTEM.norm>
0

>  <SCORE.heavy>
27

>  <SCORE.norm>
-0.394392

>  <RMSD>
5.031

$$$$
ligand
 OpenBabel11021811473D
libRbt.so/2013.1/901 2013/11/27
 27 29  0  0  0  0  0  0  0  0999 V2000
   45.9038   58.4202   28.1205 N   0  0  0  0  0  0  0  0  0  0  0  0
   47.2261   57.8736   27.8247 C   0  0  2  0  0  0  0  0  0  0  0  0
   47.2105   56.7114   26.8295 C   0  0  0  0  0  0  0  0  0  0  0  0
   46.2760   55.9809   26.8212 O   0  0  0  0  0  0  0  0  0  0  0  0
   48.0975   57.5907   29.0664 C   0  0  0  0  0  0  0  0  0  0  0  0
   48.2721   58.6961   30.1447 C   0  0  0  0  0  0  0  0  0  0  0  0
   46.9967   59.0575   30.9516 C   0  0  2  0  0  0  0  0  0  0  0  0
   46.2772   60.2037   30.3961 N   0  0  0  0  0  0  0  0  0  0  0  0
   47.2854   59.1969   32.4782 C   0  0  0  0  0  0  0  0  0  0  0  0
   47.6441   57.9080   33.2922 C   0  0  1  0  0  0  0  0  0  0  0  0
   46.9580   56.6589   32.9825 O   0  0  0  0  0  0  0  0  0  0  0  0
   49.1472   57.5189   33.3637 C   0  0  1  0  0  0  0  0  0  0  0  0
   50.0322   58.3950   34.0739 O   0  0  0  0  0  0  0  0  0  0  0  0
   49.1593   55.9937   33.6917 C   0  0  1  0  0  0  0  0  0  0  0  0
   49.5958   55.5954   34.9691 O   0  0  0  0  0  0  0  0  0  0  0  0
   47.7826   55.5323   33.2032 C   0  0  2  0  0  0  0  0  0  0  0  0
   48.0102   56.8075   25.6733 O   0  0  0  0  0  0  0  0  0  0  0  0
   50.4197   54.5300   28.5633 N   0  0  0  0  0  0  0  0  0  0  0  0
   50.7016   55.5266   29.5046 C   0  0  0  0  0  0  0  0  0  0  0  0
   49.8794   55.6518   30.7061 N   0  0  0  0  0  0  0  0  0  0  0  0
   48.8328   54.7938   30.9147 C   0  0  0  0  0  0  0  0  0  0  0  0
   48.5548   53.7948   29.9614 C   0  0  0  0  0  0  0  0  0  0  0  0
   49.3741   53.6711   28.7639 C   0  0  0  0  0  0  0  0  0  0  0  0
   49.0874   52.6333   27.7729 N   0  0  0  0  0  0  0  0  0  0  0  0
   47.4141   53.0429   30.4245 N   0  0  0  0  0  0  0  0  0  0  0  0
   47.0057   53.5968   31.6606 C   0  0  0  0  0  0  0  0  0  0  0  0
   47.8729   54.6806   31.9820 N   0  0  0  0  0  0  0  0  0  0  0  0
  2  1  1  1  0  0  0
  2  3  1  0  0  0  0
  2  5  1  0  0  0  0
  3  4  1  0  0  0  0
  3 17  1  0  0  0  0
  5  6  1  0  0  0  0
  7  6  1  6  0  0  0
  7  8  1  0  0  0  0
  7  9  1  0  0  0  0
 10  9  1  6  0  0  0
 10 11  1  0  0  0  0
 10 12  1  0  0  0  0
 11 16  1  0  0  0  0
 12 13  1  1  0  0  0
 12 14  1  0  0  0  0
 14 15  1  1  0  0  0
 14 16  1  0  0  0  0
 16 27  1  6  0  0  0
 18 19  2  0  0  0  0
 18 23  1  0  0  0  0
 19 20  1  0  0  0  0
 20 21  2  0  0  0  0
 21 22  1  0  0  0  0
 21 27  1  0  0  0  0
 22 23  2  0  0  0  0
 22 25  1  0  0  0  0
 23 24  1  0  0  0  0
 25 26  2  0  0  0  0
 26 27  1  0  0  0  0
M  END
>  <CHROM.1>
-32.40864556,-49.92088163,67.38393277,-94.81164130,-69.12333744,-38.10683380
89.39490397,48.17211657,56.34644218,30.52892032,1.88494905,1.17254918,-2.05499333

>  <Name>
ligand

>  <RI>
0

>  <Rbt.Current_Directory>
/home/itssahil/PROJECTS/Mol_Feturizer/New_Systems/rnas/3GX2

>  <Rbt.Executable>
rbdock ($Id: //depot/dev/client3/rdock/2013.1/src/exe/rbdock.cxx#4 $)

>  <Rbt.Library>
libRbt.so (2013.1, Build901 2013/11/27)

>  <Rbt.Parameter_File>
/export/apps/rDock/src/rDock_2013.1_src/data/scripts/dock_solv.prm

>  <Rbt.Receptor>
prm/pocket_docking_2.prm

>  <SCORE>
-7.48364

>  <SCORE.INTER>
-5.22278

>  <SCORE.INTER.CONST>
1

>  <SCORE.INTER.POLAR>
0

>  <SCORE.INTER.ROT>
7

>  <SCORE.INTER.SOLV>
17.6585

>  <SCORE.INTER.VDW>
-17.6347

>  <SCORE.INTER.norm>
-0.193436

>  <SCORE.INTRA>
-2.28524

>  <SCORE.INTRA.DIHEDRAL>
-3.64953

>  <SCORE.INTRA.DIHEDRAL.0>
13.9704

>  <SCORE.INTRA.POLAR>
0

>  <SCORE.INTRA.POLAR.0>
0

>  <SCORE.INTRA.REPUL>
0

>  <SCORE.INTRA.REPUL.0>
0

>  <SCORE.INTRA.SOLV>
3.50567

>  <SCORE.INTRA.SOLV.lig_0>
-70.9758

>  <SCORE.INTRA.VDW>
-2.21331

>  <SCORE.INTRA.VDW.0>
-2.70686

>  <SCORE.INTRA.norm>
-0.0846385

>  <SCORE.RESTR>
0.0243789

>  <SCORE.RESTR.CAVITY>
0.0243789

>  <SCORE.RESTR.norm>
0.000902922

>  <SCORE.SYSTEM>
0

>  <SCORE.SYSTEM.CONST>
0

>  <SCORE.SYSTEM.DIHEDRAL>
0

>  <SCORE.SYSTEM.SOLV>
0

>  <SCORE.SYSTEM.norm>
0

>  <SCORE.heavy>
27

>  <SCORE.norm>
-0.277172

>  <RMSD>
5.044

$$$$
ligand
 OpenBabel11021811473D
libRbt.so/2013.1/901 2013/11/27
 27 29  0  0  0  0  0  0  0  0999 V2000
   52.2724   55.2544   26.6066 N   0  0  0  0  0  0  0  0  0  0  0  0
   50.8604   54.8940   26.5008 C   0  0  2  0  0  0  0  0  0  0  0  0
   50.3795   54.6774   25.0644 C   0  0  0  0  0  0  0  0  0  0  0  0
   50.7600   55.4167   24.2186 O   0  0  0  0  0  0  0  0  0  0  0  0
   49.9064   55.7818   27.3272 C   0  0  0  0  0  0  0  0  0  0  0  0
   50.2127   56.0406   28.8286 C   0  0  0  0  0  0  0  0  0  0  0  0
   49.0863   56.7402   29.6351 C   0  0  2  0  0  0  0  0  0  0  0  0
   47.8968   55.9039   29.7949 N   0  0  0  0  0  0  0  0  0  0  0  0
   48.7647   58.1638   29.0842 C   0  0  0  0  0  0  0  0  0  0  0  0
   47.6691   59.0162   29.8090 C   0  0  1  0  0  0  0  0  0  0  0  0
   46.3064   58.5022   29.8874 O   0  0  0  0  0  0  0  0  0  0  0  0
   47.9902   59.4892   31.2543 C   0  0  1  0  0  0  0  0  0  0  0  0
   49.0539   60.4345   31.4282 O   0  0  0  0  0  0  0  0  0  0  0  0
   46.6029   59.7740   31.9088 C   0  0  1  0  0  0  0  0  0  0  0  0
   46.2580   61.1130   32.1715 O   0  0  0  0  0  0  0  0  0  0  0  0
   45.6511   58.9160   31.0694 C   0  0  2  0  0  0  0  0  0  0  0  0
   49.9261   53.3953   24.6950 O   0  0  0  0  0  0  0  0  0  0  0  0
   46.6892   55.0680   34.7576 N   0  0  0  0  0  0  0  0  0  0  0  0
   47.5614   56.0586   34.2922 C   0  0  0  0  0  0  0  0  0  0  0  0
   47.1087   57.0192   33.2885 N   0  0  0  0  0  0  0  0  0  0  0  0
   45.8302   56.9536   32.8023 C   0  0  0  0  0  0  0  0  0  0  0  0
   44.9594   55.9523   33.2747 C   0  0  0  0  0  0  0  0  0  0  0  0
   45.4115   54.9949   34.2745 C   0  0  0  0  0  0  0  0  0  0  0  0
   44.5080   53.9545   34.7672 N   0  0  0  0  0  0  0  0  0  0  0  0
   43.6928   56.1109   32.6028 N   0  0  0  0  0  0  0  0  0  0  0  0
   43.8072   57.2116   31.7215 C   0  0  0  0  0  0  0  0  0  0  0  0
   45.1226   57.7480   31.8320 N   0  0  0  0  0  0  0  0  0  0  0  0
  2  1  1  6  0  0  0
  2  3  1  0  0  0  0
  2  5  1  0  0  0  0
  3  4  1  0  0  0  0
  3 17  1  0  0  0  0
  5  6  1  0  0  0  0
  7  6  1  6  0  0  0
  7  8  1  0  0  0  0
  7  9  1  0  0  0  0
 10  9  1  1  0  0  0
 10 11  1  0  0  0  0
 10 12  1  0  0  0  0
 11 16  1  0  0  0  0
 12 13  1  6  0  0  0
 12 14  1  0  0  0  0
 14 15  1  6  0  0  0
 14 16  1  0  0  0  0
 16 27  1  1  0  0  0
 18 19  2  0  0  0  0
 18 23  1  0  0  0  0
 19 20  1  0  0  0  0
 20 21  2  0  0  0  0
 21 22  1  0  0  0  0
 21 27  1  0  0  0  0
 22 23  2  0  0  0  0
 22 25  1  0  0  0  0
 23 24  1  0  0  0  0
 25 26  2  0  0  0  0
 26 27  1  0  0  0  0
M  END
>  <CHROM.1>
-40.70886600,-50.24748958,-170.14466093,67.40357551,-178.71882210,-60.28577650
86.59526759,47.63169042,56.86271297,30.37017142,0.27173018,-0.95456719,-3.07029010

>  <Name>
ligand

>  <RI>
0

>  <Rbt.Current_Directory>
/home/itssahil/PROJECTS/Mol_Feturizer/New_Systems/rnas/3GX2

>  <Rbt.Executable>
rbdock ($Id: //depot/dev/client3/rdock/2013.1/src/exe/rbdock.cxx#4 $)

>  <Rbt.Library>
libRbt.so (2013.1, Build901 2013/11/27)

>  <Rbt.Parameter_File>
/export/apps/rDock/src/rDock_2013.1_src/data/scripts/dock_solv.prm

>  <Rbt.Receptor>
prm/pocket_docking_7.prm

>  <SCORE>
-10.9813

>  <SCORE.INTER>
-7.71677

>  <SCORE.INTER.CONST>
1

>  <SCORE.INTER.POLAR>
0

>  <SCORE.INTER.ROT>
7

>  <SCORE.INTER.SOLV>
12.6683

>  <SCORE.INTER.VDW>
-17.634

>  <SCORE.INTER.norm>
-0.285806

>  <SCORE.INTRA>
-3.26699

>  <SCORE.INTRA.DIHEDRAL>
-8.77731

>  <SCORE.INTRA.DIHEDRAL.0>
13.9704

>  <SCORE.INTRA.POLAR>
0

>  <SCORE.INTRA.POLAR.0>
0

>  <SCORE.INTRA.REPUL>
0

>  <SCORE.INTRA.REPUL.0>
0

>  <SCORE.INTRA.SOLV>
2.63379

>  <SCORE.INTRA.SOLV.lig_0>
-70.9758

>  <SCORE.INTRA.VDW>
-0.195226

>  <SCORE.INTRA.VDW.0>
-2.70686

>  <SCORE.INTRA.norm>
-0.120999

>  <SCORE.RESTR>
0.00248647

>  <SCORE.RESTR.CAVITY>
0.00248647

>  <SCORE.RESTR.norm>
9.20916e-05

>  <SCORE.SYSTEM>
0

>  <SCORE.SYSTEM.CONST>
0

>  <SCORE.SYSTEM.DIHEDRAL>
0

>  <SCORE.SYSTEM.SOLV>
0

>  <SCORE.SYSTEM.norm>
0

>  <SCORE.heavy>
27

>  <SCORE.norm>
-0.406713

>  <RMSD>
5.045

$$$$
ligand
 OpenBabel11021811473D
libRbt.so/2013.1/901 2013/11/27
 27 29  0  0  0  0  0  0  0  0999 V2000
   48.6783   53.5272   31.6963 N   0  0  0  0  0  0  0  0  0  0  0  0
   47.6776   53.0356   30.7519 C   0  0  2  0  0  0  0  0  0  0  0  0
   48.2635   52.5286   29.4324 C   0  0  0  0  0  0  0  0  0  0  0  0
   48.6779   51.4183   29.3824 O   0  0  0  0  0  0  0  0  0  0  0  0
   46.4671   53.9716   30.5524 C   0  0  0  0  0  0  0  0  0  0  0  0
   46.7044   55.4453   30.1201 C   0  0  0  0  0  0  0  0  0  0  0  0
   45.4454   56.3525   30.1001 C   0  0  2  0  0  0  0  0  0  0  0  0
   44.4020   55.8589   29.2014 N   0  0  0  0  0  0  0  0  0  0  0  0
   45.8034   57.8514   29.8583 C   0  0  0  0  0  0  0  0  0  0  0  0
   46.8242   58.5418   30.8245 C   0  0  1  0  0  0  0  0  0  0  0  0
   46.6482   58.3963   32.2650 O   0  0  0  0  0  0  0  0  0  0  0  0
   48.3304   58.2424   30.5843 C   0  0  1  0  0  0  0  0  0  0  0  0
   48.9234   58.7245   29.3714 O   0  0  0  0  0  0  0  0  0  0  0  0
   49.0290   58.5434   31.9464 C   0  0  1  0  0  0  0  0  0  0  0  0
   49.8652   59.6727   32.0255 O   0  0  0  0  0  0  0  0  0  0  0  0
   47.8830   58.3996   32.9528 C   0  0  2  0  0  0  0  0  0  0  0  0
   47.8738   53.1648   28.2370 O   0  0  0  0  0  0  0  0  0  0  0  0
   45.4398   54.0583   35.1139 N   0  0  0  0  0  0  0  0  0  0  0  0
   44.8682   55.0347   34.2900 C   0  0  0  0  0  0  0  0  0  0  0  0
   45.6822   56.1431   33.7963 N   0  0  0  0  0  0  0  0  0  0  0  0
   47.0059   56.2283   34.1368 C   0  0  0  0  0  0  0  0  0  0  0  0
   47.5727   55.2424   34.9680 C   0  0  0  0  0  0  0  0  0  0  0  0
   46.7607   54.1385   35.4603 C   0  0  0  0  0  0  0  0  0  0  0  0
   47.3480   53.1128   36.3231 N   0  0  0  0  0  0  0  0  0  0  0  0
   48.9628   55.5731   35.1662 N   0  0  0  0  0  0  0  0  0  0  0  0
   49.2285   56.7649   34.4519 C   0  0  0  0  0  0  0  0  0  0  0  0
   48.0299   57.1852   33.8063 N   0  0  0  0  0  0  0  0  0  0  0  0
  2  1  1  6  0  0  0
  2  3  1  0  0  0  0
  2  5  1  0  0  0  0
  3  4  1  0  0  0  0
  3 17  1  0  0  0  0
  5  6  1  0  0  0  0
  7  6  1  6  0  0  0
  7  8  1  0  0  0  0
  7  9  1  0  0  0  0
 10  9  1  6  0  0  0
 10 11  1  0  0  0  0
 10 12  1  0  0  0  0
 11 16  1  0  0  0  0
 12 13  1  6  0  0  0
 12 14  1  0  0  0  0
 14 15  1  6  0  0  0
 14 16  1  0  0  0  0
 16 27  1  6  0  0  0
 18 19  2  0  0  0  0
 18 23  1  0  0  0  0
 19 20  1  0  0  0  0
 20 21  2  0  0  0  0
 21 22  1  0  0  0  0
 21 27  1  0  0  0  0
 22 23  2  0  0  0  0
 22 25  1  0  0  0  0
 23 24  1  0  0  0  0
 25 26  2  0  0  0  0
 26 27  1  0  0  0  0
M  END
>  <CHROM.1>
83.38297518,55.48415225,-173.34401579,-59.03723364,-55.62584561,-48.44275820
-11.29575687,47.37763898,55.82885883,32.00726986,1.78872209,-1.44327600,-1.79980107

>  <Name>
ligand

>  <RI>
0

>  <Rbt.Current_Directory>
/home/itssahil/PROJECTS/Mol_Feturizer/New_Systems/rnas/3GX2

>  <Rbt.Executable>
rbdock ($Id: //depot/dev/client3/rdock/2013.1/src/exe/rbdock.cxx#4 $)

>  <Rbt.Library>
libRbt.so (2013.1, Build901 2013/11/27)

>  <Rbt.Parameter_File>
/export/apps/rDock/src/rDock_2013.1_src/data/scripts/dock_solv.prm

>  <Rbt.Receptor>
prm/pocket_docking_4.prm

>  <SCORE>
-11.5964

>  <SCORE.INTER>
-6.72439

>  <SCORE.INTER.CONST>
1

>  <SCORE.INTER.POLAR>
0

>  <SCORE.INTER.ROT>
7

>  <SCORE.INTER.SOLV>
15.5153

>  <SCORE.INTER.VDW>
-17.9214

>  <SCORE.INTER.norm>
-0.249052

>  <SCORE.INTRA>
-4.87206

>  <SCORE.INTRA.DIHEDRAL>
-8.71246

>  <SCORE.INTRA.DIHEDRAL.0>
13.9704

>  <SCORE.INTRA.POLAR>
0

>  <SCORE.INTRA.POLAR.0>
0

>  <SCORE.INTRA.REPUL>
0

>  <SCORE.INTRA.REPUL.0>
0

>  <SCORE.INTRA.SOLV>
0.410202

>  <SCORE.INTRA.SOLV.lig_0>
-70.9758

>  <SCORE.INTRA.VDW>
-0.720924

>  <SCORE.INTRA.VDW.0>
-2.70686

>  <SCORE.INTRA.norm>
-0.180446

>  <SCORE.RESTR>
0

>  <SCORE.RESTR.CAVITY>
0

>  <SCORE.RESTR.norm>
0

>  <SCORE.SYSTEM>
0

>  <SCORE.SYSTEM.CONST>
0

>  <SCORE.SYSTEM.DIHEDRAL>
0

>  <SCORE.SYSTEM.SOLV>
0

>  <SCORE.SYSTEM.norm>
0

>  <SCORE.heavy>
27

>  <SCORE.norm>
-0.429498

>  <RMSD>
5.067

$$$$
ligand
 OpenBabel11021811473D
libRbt.so/2013.1/901 2013/11/27
 27 29  0  0  0  0  0  0  0  0999 V2000
   45.9147   56.1367   27.8312 N   0  0  0  0  0  0  0  0  0  0  0  0
   46.9331   57.1763   27.7010 C   0  0  2  0  0  0  0  0  0  0  0  0
   48.2983   56.6564   27.2457 C   0  0  0  0  0  0  0  0  0  0  0  0
   48.5807   56.7278   26.0959 O   0  0  0  0  0  0  0  0  0  0  0  0
   47.0264   58.1393   28.9031 C   0  0  0  0  0  0  0  0  0  0  0  0
   47.1564   57.5584   30.3386 C   0  0  0  0  0  0  0  0  0  0  0  0
   47.2916   58.6030   31.4784 C   0  0  2  0  0  0  0  0  0  0  0  0
   48.6010   59.2548   31.5011 N   0  0  0  0  0  0  0  0  0  0  0  0
   46.8732   58.0205   32.8637 C   0  0  0  0  0  0  0  0  0  0  0  0
   47.6042   56.7385   33.3875 C   0  0  1  0  0  0  0  0  0  0  0  0
   47.4103   55.4743   32.6865 O   0  0  0  0  0  0  0  0  0  0  0  0
   49.1422   56.8402   33.5881 C   0  0  1  0  0  0  0  0  0  0  0  0
   49.6268   57.7175   34.6131 O   0  0  0  0  0  0  0  0  0  0  0  0
   49.6591   55.3691   33.5369 C   0  0  1  0  0  0  0  0  0  0  0  0
   50.1283   54.7910   34.7313 O   0  0  0  0  0  0  0  0  0  0  0  0
   48.5576   54.6513   32.7505 C   0  0  2  0  0  0  0  0  0  0  0  0
   49.3339   56.5683   28.1973 O   0  0  0  0  0  0  0  0  0  0  0  0
   47.2212   52.2709   28.0564 N   0  0  0  0  0  0  0  0  0  0  0  0
   46.4066   52.4561   29.1792 C   0  0  0  0  0  0  0  0  0  0  0  0
   46.9374   53.1227   30.3662 N   0  0  0  0  0  0  0  0  0  0  0  0
   48.2318   53.5691   30.3823 C   0  0  0  0  0  0  0  0  0  0  0  0
   49.0455   53.3769   29.2487 C   0  0  0  0  0  0  0  0  0  0  0  0
   48.5161   52.7119   28.0664 C   0  0  0  0  0  0  0  0  0  0  0  0
   49.3596   52.5122   26.8874 N   0  0  0  0  0  0  0  0  0  0  0  0
   50.3451   53.9342   29.5341 N   0  0  0  0  0  0  0  0  0  0  0  0
   50.3096   54.4604   30.8469 C   0  0  0  0  0  0  0  0  0  0  0  0
   49.0091   54.2458   31.3880 N   0  0  0  0  0  0  0  0  0  0  0  0
  2  1  1  1  0  0  0
  2  3  1  0  0  0  0
  2  5  1  0  0  0  0
  3  4  1  0  0  0  0
  3 17  1  0  0  0  0
  5  6  1  0  0  0  0
  7  6  1  6  0  0  0
  7  8  1  0  0  0  0
  7  9  1  0  0  0  0
 10  9  1  6  0  0  0
 10 11  1  0  0  0  0
 10 12  1  0  0  0  0
 11 16  1  0  0  0  0
 12 13  1  1  0  0  0
 12 14  1  0  0  0  0
 14 15  1  1  0  0  0
 14 16  1  0  0  0  0
 16 27  1  6  0  0  0
 18 19  2  0  0  0  0
 18 23  1  0  0  0  0
 19 20  1  0  0  0  0
 20 21  2  0  0  0  0
 21 22  1  0  0  0  0
 21 27  1  0  0  0  0
 22 23  2  0  0  0  0
 22 25  1  0  0  0  0
 23 24  1  0  0  0  0
 25 26  2  0  0  0  0
 26 27  1  0  0  0  0
M  END
>  <CHROM.1>
97.15844441,51.32213533,178.03656677,-72.73291658,56.83942464,-66.98842668
-56.13264497,48.29332899,55.58136231,30.45075112,1.93474017,1.26827176,-2.32153847

>  <Name>
ligand

>  <RI>
0

>  <Rbt.Current_Directory>
/home/itssahil/PROJECTS/Mol_Feturizer/New_Systems/rnas/3GX2

>  <Rbt.Executable>
rbdock ($Id: //depot/dev/client3/rdock/2013.1/src/exe/rbdock.cxx#4 $)

>  <Rbt.Library>
libRbt.so (2013.1, Build901 2013/11/27)

>  <Rbt.Parameter_File>
/export/apps/rDock/src/rDock_2013.1_src/data/scripts/dock_solv.prm

>  <Rbt.Receptor>
prm/pocket_docking_3.prm

>  <SCORE>
-10.459

>  <SCORE.INTER>
-6.31743

>  <SCORE.INTER.CONST>
1

>  <SCORE.INTER.POLAR>
0

>  <SCORE.INTER.ROT>
7

>  <SCORE.INTER.SOLV>
12.0995

>  <SCORE.INTER.VDW>
-16.5114

>  <SCORE.INTER.norm>
-0.233979

>  <SCORE.INTRA>
-4.14159

>  <SCORE.INTRA.DIHEDRAL>
-8.36948

>  <SCORE.INTRA.DIHEDRAL.0>
13.9704

>  <SCORE.INTRA.POLAR>
0

>  <SCORE.INTRA.POLAR.0>
0

>  <SCORE.INTRA.REPUL>
0

>  <SCORE.INTRA.REPUL.0>
0

>  <SCORE.INTRA.SOLV>
2.91962

>  <SCORE.INTRA.SOLV.lig_0>
-70.9758

>  <SCORE.INTRA.VDW>
-1.41666

>  <SCORE.INTRA.VDW.0>
-2.70686

>  <SCORE.INTRA.norm>
-0.153392

>  <SCORE.RESTR>
0

>  <SCORE.RESTR.CAVITY>
0

>  <SCORE.RESTR.norm>
0

>  <SCORE.SYSTEM>
0

>  <SCORE.SYSTEM.CONST>
0

>  <SCORE.SYSTEM.DIHEDRAL>
0

>  <SCORE.SYSTEM.SOLV>
0

>  <SCORE.SYSTEM.norm>
0

>  <SCORE.heavy>
27

>  <SCORE.norm>
-0.387371

>  <RMSD>
5.072

$$$$
ligand
 OpenBabel11021811473D
libRbt.so/2013.1/901 2013/11/27
 27 29  0  0  0  0  0  0  0  0999 V2000
   47.6346   56.1184   28.4560 N   0  0  0  0  0  0  0  0  0  0  0  0
   47.4183   57.5407   28.2003 C   0  0  2  0  0  0  0  0  0  0  0  0
   47.2082   57.8824   26.7237 C   0  0  0  0  0  0  0  0  0  0  0  0
   47.0186   59.0137   26.4221 O   0  0  0  0  0  0  0  0  0  0  0  0
   48.4246   58.4798   28.8979 C   0  0  0  0  0  0  0  0  0  0  0  0
   48.5634   58.4366   30.4451 C   0  0  0  0  0  0  0  0  0  0  0  0
   47.2783   58.7751   31.2465 C   0  0  2  0  0  0  0  0  0  0  0  0
   46.7770   60.1225   30.9760 N   0  0  0  0  0  0  0  0  0  0  0  0
   47.4375   58.4750   32.7690 C   0  0  0  0  0  0  0  0  0  0  0  0
   47.6129   56.9867   33.2236 C   0  0  1  0  0  0  0  0  0  0  0  0
   47.2962   55.9159   32.2854 O   0  0  0  0  0  0  0  0  0  0  0  0
   48.9958   56.5914   33.8128 C   0  0  1  0  0  0  0  0  0  0  0  0
   49.3821   57.1759   35.0635 O   0  0  0  0  0  0  0  0  0  0  0  0
   49.0892   55.0444   33.6333 C   0  0  1  0  0  0  0  0  0  0  0  0
   49.0205   54.2395   34.7858 O   0  0  0  0  0  0  0  0  0  0  0  0
   48.1103   54.7779   32.4855 C   0  0  2  0  0  0  0  0  0  0  0  0
   47.7077   56.9928   25.7517 O   0  0  0  0  0  0  0  0  0  0  0  0
   47.7334   52.2482   27.6953 N   0  0  0  0  0  0  0  0  0  0  0  0
   46.7320   52.3943   28.6621 C   0  0  0  0  0  0  0  0  0  0  0  0
   47.0129   53.1113   29.9038 N   0  0  0  0  0  0  0  0  0  0  0  0
   48.2554   53.6434   30.1238 C   0  0  0  0  0  0  0  0  0  0  0  0
   49.2581   53.4902   29.1464 C   0  0  0  0  0  0  0  0  0  0  0  0
   48.9776   52.7748   27.9095 C   0  0  0  0  0  0  0  0  0  0  0  0
   50.0177   52.6155   26.8925 N   0  0  0  0  0  0  0  0  0  0  0  0
   50.4533   54.1371   29.6300 N   0  0  0  0  0  0  0  0  0  0  0  0
   50.1650   54.6780   30.9050 C   0  0  0  0  0  0  0  0  0  0  0  0
   48.8085   54.3845   31.2275 N   0  0  0  0  0  0  0  0  0  0  0  0
  2  1  1  6  0  0  0
  2  3  1  0  0  0  0
  2  5  1  0  0  0  0
  3  4  1  0  0  0  0
  3 17  1  0  0  0  0
  5  6  1  0  0  0  0
  7  6  1  6  0  0  0
  7  8  1  0  0  0  0
  7  9  1  0  0  0  0
 10  9  1  6  0  0  0
 10 11  1  0  0  0  0
 10 12  1  0  0  0  0
 11 16  1  0  0  0  0
 12 13  1  1  0  0  0
 12 14  1  0  0  0  0
 14 15  1  1  0  0  0
 14 16  1  0  0  0  0
 16 27  1  6  0  0  0
 18 19  2  0  0  0  0
 18 23  1  0  0  0  0
 19 20  1  0  0  0  0
 20 21  2  0  0  0  0
 21 22  1  0  0  0  0
 21 27  1  0  0  0  0
 22 23  2  0  0  0  0
 22 25  1  0  0  0  0
 23 24  1  0  0  0  0
 25 26  2  0  0  0  0
 26 27  1  0  0  0  0
M  END
>  <CHROM.1>
179.64006034,-58.01733890,-60.43282080,-60.44558481,-66.03421360,-15.04986068
-79.63908325,48.22586590,55.84880279,30.29030006,1.85514968,1.31881336,-2.05649783

>  <Name>
ligand

>  <RI>
0

>  <Rbt.Current_Directory>
/home/itssahil/PROJECTS/Mol_Feturizer/New_Systems/rnas/3GX2

>  <Rbt.Executable>
rbdock ($Id: //depot/dev/client3/rdock/2013.1/src/exe/rbdock.cxx#4 $)

>  <Rbt.Library>
libRbt.so (2013.1, Build901 2013/11/27)

>  <Rbt.Parameter_File>
/export/apps/rDock/src/rDock_2013.1_src/data/scripts/dock_solv.prm

>  <Rbt.Receptor>
prm/pocket_docking_2.prm

>  <SCORE>
-8.07019

>  <SCORE.INTER>
-7.81289

>  <SCORE.INTER.CONST>
1

>  <SCORE.INTER.POLAR>
0

>  <SCORE.INTER.ROT>
7

>  <SCORE.INTER.SOLV>
13.5745

>  <SCORE.INTER.VDW>
-18.0001

>  <SCORE.INTER.norm>
-0.289366

>  <SCORE.INTRA>
-1.41156

>  <SCORE.INTRA.DIHEDRAL>
-4.51523

>  <SCORE.INTRA.DIHEDRAL.0>
13.9704

>  <SCORE.INTRA.POLAR>
0

>  <SCORE.INTRA.POLAR.0>
0

>  <SCORE.INTRA.REPUL>
0

>  <SCORE.INTRA.REPUL.0>
0

>  <SCORE.INTRA.SOLV>
3.61196

>  <SCORE.INTRA.SOLV.lig_0>
-70.9758

>  <SCORE.INTRA.VDW>
-0.959924

>  <SCORE.INTRA.VDW.0>
-2.70686

>  <SCORE.INTRA.norm>
-0.05228

>  <SCORE.RESTR>
1.15427

>  <SCORE.RESTR.CAVITY>
1.15427

>  <SCORE.RESTR.norm>
0.0427507

>  <SCORE.SYSTEM>
0

>  <SCORE.SYSTEM.CONST>
0

>  <SCORE.SYSTEM.DIHEDRAL>
0

>  <SCORE.SYSTEM.SOLV>
0

>  <SCORE.SYSTEM.norm>
0

>  <SCORE.heavy>
27

>  <SCORE.norm>
-0.298896

>  <RMSD>
5.078

$$$$
ligand
 OpenBabel11021811473D
libRbt.so/2013.1/901 2013/11/27
 27 29  0  0  0  0  0  0  0  0999 V2000
   45.9296   52.4734   29.0858 N   0  0  0  0  0  0  0  0  0  0  0  0
   47.1667   53.1495   28.7018 C   0  0  2  0  0  0  0  0  0  0  0  0
   48.2953   52.1990   28.2967 C   0  0  0  0  0  0  0  0  0  0  0  0
   48.7899   52.3255   27.2261 O   0  0  0  0  0  0  0  0  0  0  0  0
   47.6287   54.2495   29.6804 C   0  0  0  0  0  0  0  0  0  0  0  0
   46.6340   55.3688   30.0962 C   0  0  0  0  0  0  0  0  0  0  0  0
   45.9987   56.1726   28.9306 C   0  0  2  0  0  0  0  0  0  0  0  0
   46.9344   56.4210   27.8339 N   0  0  0  0  0  0  0  0  0  0  0  0
   45.2817   57.4653   29.4287 C   0  0  0  0  0  0  0  0  0  0  0  0
   46.0901   58.4768   30.3093 C   0  0  1  0  0  0  0  0  0  0  0  0
   46.0133   58.3725   31.7621 O   0  0  0  0  0  0  0  0  0  0  0  0
   47.6092   58.6108   30.0087 C   0  0  1  0  0  0  0  0  0  0  0  0
   47.9948   59.1706   28.7465 O   0  0  0  0  0  0  0  0  0  0  0  0
   48.2362   59.1807   31.3187 C   0  0  1  0  0  0  0  0  0  0  0  0
   48.7103   60.5058   31.3029 O   0  0  0  0  0  0  0  0  0  0  0  0
   47.2165   58.7725   32.3866 C   0  0  2  0  0  0  0  0  0  0  0  0
   49.0281   51.5558   29.3139 O   0  0  0  0  0  0  0  0  0  0  0  0
   46.2906   53.9555   34.7160 N   0  0  0  0  0  0  0  0  0  0  0  0
   45.4437   54.6610   33.8535 C   0  0  0  0  0  0  0  0  0  0  0  0
   45.8591   55.9550   33.3169 N   0  0  0  0  0  0  0  0  0  0  0  0
   47.0780   56.4796   33.6550 C   0  0  0  0  0  0  0  0  0  0  0  0
   47.9234   55.7639   34.5251 C   0  0  0  0  0  0  0  0  0  0  0  0
   47.5085   54.4747   35.0601 C   0  0  0  0  0  0  0  0  0  0  0  0
   48.3859   53.7293   35.9634 N   0  0  0  0  0  0  0  0  0  0  0  0
   49.1272   56.5367   34.7114 N   0  0  0  0  0  0  0  0  0  0  0  0
   49.0002   57.7226   33.9505 C   0  0  0  0  0  0  0  0  0  0  0  0
   47.7391   57.7049   33.2877 N   0  0  0  0  0  0  0  0  0  0  0  0
  2  1  1  1  0  0  0
  2  3  1  0  0  0  0
  2  5  1  0  0  0  0
  3  4  1  0  0  0  0
  3 17  1  0  0  0  0
  5  6  1  0  0  0  0
  7  6  1  1  0  0  0
  7  8  1  0  0  0  0
  7  9  1  0  0  0  0
 10  9  1  6  0  0  0
 10 11  1  0  0  0  0
 10 12  1  0  0  0  0
 11 16  1  0  0  0  0
 12 13  1  6  0  0  0
 12 14  1  0  0  0  0
 14 15  1  6  0  0  0
 14 16  1  0  0  0  0
 16 27  1  6  0  0  0
 18 19  2  0  0  0  0
 18 23  1  0  0  0  0
 19 20  1  0  0  0  0
 20 21  2  0  0  0  0
 21 22  1  0  0  0  0
 21 27  1  0  0  0  0
 22 23  2  0  0  0  0
 22 25  1  0  0  0  0
 23 24  1  0  0  0  0
 25 26  2  0  0  0  0
 26 27  1  0  0  0  0
M  END
>  <CHROM.1>
123.67192051,-52.33442244,-55.62555802,-37.69119339,53.89145923,-93.77707959
-7.60748465,47.35105668,55.98238023,31.29150980,-1.51027938,-1.51835649,0.88373484

>  <Name>
ligand

>  <RI>
0

>  <Rbt.Current_Directory>
/home/itssahil/PROJECTS/Mol_Feturizer/New_Systems/rnas/3GX2

>  <Rbt.Executable>
rbdock ($Id: //depot/dev/client3/rdock/2013.1/src/exe/rbdock.cxx#4 $)

>  <Rbt.Library>
libRbt.so (2013.1, Build901 2013/11/27)

>  <Rbt.Parameter_File>
/export/apps/rDock/src/rDock_2013.1_src/data/scripts/dock_solv.prm

>  <Rbt.Receptor>
prm/pocket_docking_3.prm

>  <SCORE>
-6.76793

>  <SCORE.INTER>
-6.17029

>  <SCORE.INTER.CONST>
1

>  <SCORE.INTER.POLAR>
0

>  <SCORE.INTER.ROT>
7

>  <SCORE.INTER.SOLV>
14.6397

>  <SCORE.INTER.VDW>
-17.2601

>  <SCORE.INTER.norm>
-0.228529

>  <SCORE.INTRA>
-0.59764

>  <SCORE.INTRA.DIHEDRAL>
-3.94727

>  <SCORE.INTRA.DIHEDRAL.0>
13.9704

>  <SCORE.INTRA.POLAR>
0

>  <SCORE.INTRA.POLAR.0>
0

>  <SCORE.INTRA.REPUL>
0

>  <SCORE.INTRA.REPUL.0>
0

>  <SCORE.INTRA.SOLV>
4.21536

>  <SCORE.INTRA.SOLV.lig_0>
-70.9758

>  <SCORE.INTRA.VDW>
-0.731684

>  <SCORE.INTRA.VDW.0>
-2.70686

>  <SCORE.INTRA.norm>
-0.0221348

>  <SCORE.RESTR>
0

>  <SCORE.RESTR.CAVITY>
0

>  <SCORE.RESTR.norm>
0

>  <SCORE.SYSTEM>
0

>  <SCORE.SYSTEM.CONST>
0

>  <SCORE.SYSTEM.DIHEDRAL>
0

>  <SCORE.SYSTEM.SOLV>
0

>  <SCORE.SYSTEM.norm>
0

>  <SCORE.heavy>
27

>  <SCORE.norm>
-0.250664

>  <RMSD>
5.086

$$$$
ligand
 OpenBabel11021811473D
libRbt.so/2013.1/901 2013/11/27
 27 29  0  0  0  0  0  0  0  0999 V2000
   50.8655   54.5736   25.6135 N   0  0  0  0  0  0  0  0  0  0  0  0
   50.2786   54.4836   26.9486 C   0  0  2  0  0  0  0  0  0  0  0  0
   50.9942   53.5010   27.8778 C   0  0  0  0  0  0  0  0  0  0  0  0
   50.9592   52.3439   27.6194 O   0  0  0  0  0  0  0  0  0  0  0  0
   48.7443   54.3203   26.9668 C   0  0  0  0  0  0  0  0  0  0  0  0
   47.9755   54.4769   28.3084 C   0  0  0  0  0  0  0  0  0  0  0  0
   48.0805   55.8689   28.9865 C   0  0  2  0  0  0  0  0  0  0  0  0
   48.0043   56.9746   28.0316 N   0  0  0  0  0  0  0  0  0  0  0  0
   49.3101   55.9677   29.9412 C   0  0  0  0  0  0  0  0  0  0  0  0
   49.2393   55.2457   31.3291 C   0  0  1  0  0  0  0  0  0  0  0  0
   48.1670   55.5917   32.2553 O   0  0  0  0  0  0  0  0  0  0  0  0
   49.2533   53.6916   31.3131 C   0  0  1  0  0  0  0  0  0  0  0  0
   50.4480   53.0377   30.8657 O   0  0  0  0  0  0  0  0  0  0  0  0
   48.6123   53.2633   32.6695 C   0  0  1  0  0  0  0  0  0  0  0  0
   49.4474   52.6802   33.6407 O   0  0  0  0  0  0  0  0  0  0  0  0
   47.7783   54.4902   33.0512 C   0  0  2  0  0  0  0  0  0  0  0  0
   52.0372   53.9859   28.6918 O   0  0  0  0  0  0  0  0  0  0  0  0
   43.0207   54.2033   35.6532 N   0  0  0  0  0  0  0  0  0  0  0  0
   44.2728   54.5073   36.1995 C   0  0  0  0  0  0  0  0  0  0  0  0
   45.4564   54.5393   35.3432 N   0  0  0  0  0  0  0  0  0  0  0  0
   45.3431   54.2738   34.0046 C   0  0  0  0  0  0  0  0  0  0  0  0
   44.0795   53.9668   33.4632 C   0  0  0  0  0  0  0  0  0  0  0  0
   42.9005   53.9343   34.3173 C   0  0  0  0  0  0  0  0  0  0  0  0
   41.5868   53.6166   33.7566 N   0  0  0  0  0  0  0  0  0  0  0  0
   44.2462   53.7313   32.0498 N   0  0  0  0  0  0  0  0  0  0  0  0
   45.6177   53.8958   31.7442 C   0  0  0  0  0  0  0  0  0  0  0  0
   46.3130   54.2337   32.9410 N   0  0  0  0  0  0  0  0  0  0  0  0
  2  1  1  6  0  0  0
  2  3  1  0  0  0  0
  2  5  1  0  0  0  0
  3  4  1  0  0  0  0
  3 17  1  0  0  0  0
  5  6  1  0  0  0  0
  7  6  1  6  0  0  0
  7  8  1  0  0  0  0
  7  9  1  0  0  0  0
 10  9  1  6  0  0  0
 10 11  1  0  0  0  0
 10 12  1  0  0  0  0
 11 16  1  0  0  0  0
 12 13  1  1  0  0  0
 12 14  1  0  0  0  0
 14 15  1  1  0  0  0
 14 16  1  0  0  0  0
 16 27  1  6  0  0  0
 18 19  2  0  0  0  0
 18 23  1  0  0  0  0
 19 20  1  0  0  0  0
 20 21  2  0  0  0  0
 21 22  1  0  0  0  0
 21 27  1  0  0  0  0
 22 23  2  0  0  0  0
 22 25  1  0  0  0  0
 23 24  1  0  0  0  0
 25 26  2  0  0  0  0
 26 27  1  0  0  0  0
M  END
>  <CHROM.1>
-66.26815042,-168.73109534,61.83764077,40.55527131,-75.06961822,-57.86270350
-119.04173635,47.64396509,54.25670928,31.17120983,0.78772299,0.21397645,-1.34000114

>  <Name>
ligand

>  <RI>
0

>  <Rbt.Current_Directory>
/home/itssahil/PROJECTS/Mol_Feturizer/New_Systems/rnas/3GX2

>  <Rbt.Executable>
rbdock ($Id: //depot/dev/client3/rdock/2013.1/src/exe/rbdock.cxx#4 $)

>  <Rbt.Library>
libRbt.so (2013.1, Build901 2013/11/27)

>  <Rbt.Parameter_File>
/export/apps/rDock/src/rDock_2013.1_src/data/scripts/dock_solv.prm

>  <Rbt.Receptor>
prm/pocket_docking_6.prm

>  <SCORE>
-5.99564

>  <SCORE.INTER>
-2.54654

>  <SCORE.INTER.CONST>
1

>  <SCORE.INTER.POLAR>
0

>  <SCORE.INTER.ROT>
7

>  <SCORE.INTER.SOLV>
8.82317

>  <SCORE.INTER.VDW>
-12.9054

>  <SCORE.INTER.norm>
-0.0943163

>  <SCORE.INTRA>
-3.4491

>  <SCORE.INTRA.DIHEDRAL>
-6.85957

>  <SCORE.INTRA.DIHEDRAL.0>
13.9704

>  <SCORE.INTRA.POLAR>
0

>  <SCORE.INTRA.POLAR.0>
0

>  <SCORE.INTRA.REPUL>
0

>  <SCORE.INTRA.REPUL.0>
0

>  <SCORE.INTRA.SOLV>
2.13007

>  <SCORE.INTRA.SOLV.lig_0>
-70.9758

>  <SCORE.INTRA.VDW>
-1.08435

>  <SCORE.INTRA.VDW.0>
-2.70686

>  <SCORE.INTRA.norm>
-0.127744

>  <SCORE.RESTR>
0

>  <SCORE.RESTR.CAVITY>
0

>  <SCORE.RESTR.norm>
0

>  <SCORE.SYSTEM>
0

>  <SCORE.SYSTEM.CONST>
0

>  <SCORE.SYSTEM.DIHEDRAL>
0

>  <SCORE.SYSTEM.SOLV>
0

>  <SCORE.SYSTEM.norm>
0

>  <SCORE.heavy>
27

>  <SCORE.norm>
-0.222061

>  <RMSD>
5.102

$$$$
ligand
 OpenBabel11021811483D
libRbt.so/2013.1/901 2013/11/27
 27 29  0  0  0  0  0  0  0  0999 V2000
   48.5525   53.2215   24.7887 N   0  0  0  0  0  0  0  0  0  0  0  0
   48.1237   54.6140   24.8976 C   0  0  2  0  0  0  0  0  0  0  0  0
   48.9283   55.5825   24.0281 C   0  0  0  0  0  0  0  0  0  0  0  0
   50.1099   55.5927   24.1302 O   0  0  0  0  0  0  0  0  0  0  0  0
   47.9360   55.1179   26.3440 C   0  0  0  0  0  0  0  0  0  0  0  0
   47.4117   56.5603   26.5882 C   0  0  0  0  0  0  0  0  0  0  0  0
   47.1919   56.9549   28.0729 C   0  0  2  0  0  0  0  0  0  0  0  0
   46.1282   56.1833   28.7157 N   0  0  0  0  0  0  0  0  0  0  0  0
   47.0266   58.4953   28.2546 C   0  0  0  0  0  0  0  0  0  0  0  0
   46.9186   59.0697   29.7075 C   0  0  1  0  0  0  0  0  0  0  0  0
   45.6572   58.9433   30.4288 O   0  0  0  0  0  0  0  0  0  0  0  0
   47.9975   58.6079   30.7266 C   0  0  1  0  0  0  0  0  0  0  0  0
   49.3511   59.0233   30.5023 O   0  0  0  0  0  0  0  0  0  0  0  0
   47.3548   58.8301   32.1308 C   0  0  1  0  0  0  0  0  0  0  0  0
   47.8699   59.8614   32.9382 O   0  0  0  0  0  0  0  0  0  0  0  0
   45.8544   58.8115   31.8222 C   0  0  2  0  0  0  0  0  0  0  0  0
   48.3432   56.0605   22.8386 O   0  0  0  0  0  0  0  0  0  0  0  0
   41.9178   55.1389   31.1135 N   0  0  0  0  0  0  0  0  0  0  0  0
   42.2222   56.2301   30.2916 C   0  0  0  0  0  0  0  0  0  0  0  0
   43.3254   57.1228   30.6395 N   0  0  0  0  0  0  0  0  0  0  0  0
   44.0648   56.8931   31.7690 C   0  0  0  0  0  0  0  0  0  0  0  0
   43.7506   55.7938   32.5917 C   0  0  0  0  0  0  0  0  0  0  0  0
   42.6505   54.9050   32.2447 C   0  0  0  0  0  0  0  0  0  0  0  0
   42.3232   53.7618   33.0976 N   0  0  0  0  0  0  0  0  0  0  0  0
   44.6744   55.7887   33.6996 N   0  0  0  0  0  0  0  0  0  0  0  0
   45.5445   56.8928   33.5404 C   0  0  0  0  0  0  0  0  0  0  0  0
   45.1844   57.5877   32.3498 N   0  0  0  0  0  0  0  0  0  0  0  0
  2  1  1  1  0  0  0
  2  3  1  0  0  0  0
  2  5  1  0  0  0  0
  3  4  1  0  0  0  0
  3 17  1  0  0  0  0
  5  6  1  0  0  0  0
  7  6  1  6  0  0  0
  7  8  1  0  0  0  0
  7  9  1  0  0  0  0
 10  9  1  6  0  0  0
 10 11  1  0  0  0  0
 10 12  1  0  0  0  0
 11 16  1  0  0  0  0
 12 13  1  1  0  0  0
 12 14  1  0  0  0  0
 14 15  1  6  0  0  0
 14 16  1  0  0  0  0
 16 27  1  6  0  0  0
 18 19  2  0  0  0  0
 18 23  1  0  0  0  0
 19 20  1  0  0  0  0
 20 21  2  0  0  0  0
 21 22  1  0  0  0  0
 21 27  1  0  0  0  0
 22 23  2  0  0  0  0
 22 25  1  0  0  0  0
 23 24  1  0  0  0  0
 25 26  2  0  0  0  0
 26 27  1  0  0  0  0
M  END
>  <CHROM.1>
-53.81112367,-176.87826277,177.24140707,-65.49525192,-174.87015301,-77.29821123
-24.01506097,46.26319998,56.76035013,29.47401425,0.90794869,-0.64833289,-2.16373657

>  <Name>
ligand

>  <RI>
0

>  <Rbt.Current_Directory>
/home/itssahil/PROJECTS/Mol_Feturizer/New_Systems/rnas/3GX2

>  <Rbt.Executable>
rbdock ($Id: //depot/dev/client3/rdock/2013.1/src/exe/rbdock.cxx#4 $)

>  <Rbt.Library>
libRbt.so (2013.1, Build901 2013/11/27)

>  <Rbt.Parameter_File>
/export/apps/rDock/src/rDock_2013.1_src/data/scripts/dock_solv.prm

>  <Rbt.Receptor>
prm/pocket_docking_8.prm

>  <SCORE>
-11.9266

>  <SCORE.INTER>
-9.08936

>  <SCORE.INTER.CONST>
1

>  <SCORE.INTER.POLAR>
0

>  <SCORE.INTER.ROT>
7

>  <SCORE.INTER.SOLV>
10.8197

>  <SCORE.INTER.VDW>
-17.9328

>  <SCORE.INTER.norm>
-0.336643

>  <SCORE.INTRA>
-2.83728

>  <SCORE.INTRA.DIHEDRAL>
-8.22961

>  <SCORE.INTRA.DIHEDRAL.0>
13.9704

>  <SCORE.INTRA.POLAR>
0

>  <SCORE.INTRA.POLAR.0>
0

>  <SCORE.INTRA.REPUL>
0

>  <SCORE.INTRA.REPUL.0>
0

>  <SCORE.INTRA.SOLV>
2.36232

>  <SCORE.INTRA.SOLV.lig_0>
-70.9758

>  <SCORE.INTRA.VDW>
0.096369

>  <SCORE.INTRA.VDW.0>
-2.70686

>  <SCORE.INTRA.norm>
-0.105084

>  <SCORE.RESTR>
0

>  <SCORE.RESTR.CAVITY>
0

>  <SCORE.RESTR.norm>
0

>  <SCORE.SYSTEM>
0

>  <SCORE.SYSTEM.CONST>
0

>  <SCORE.SYSTEM.DIHEDRAL>
0

>  <SCORE.SYSTEM.SOLV>
0

>  <SCORE.SYSTEM.norm>
0

>  <SCORE.heavy>
27

>  <SCORE.norm>
-0.441727

>  <RMSD>
5.117

$$$$
ligand
 OpenBabel11021811473D
libRbt.so/2013.1/901 2013/11/27
 27 29  0  0  0  0  0  0  0  0999 V2000
   46.9227   59.1704   26.1174 N   0  0  0  0  0  0  0  0  0  0  0  0
   47.5167   58.2852   27.1167 C   0  0  2  0  0  0  0  0  0  0  0  0
   47.8494   56.8874   26.5904 C   0  0  0  0  0  0  0  0  0  0  0  0
   47.3189   56.5108   25.5987 O   0  0  0  0  0  0  0  0  0  0  0  0
   46.7787   58.2580   28.4716 C   0  0  0  0  0  0  0  0  0  0  0  0
   47.5065   58.7643   29.7479 C   0  0  0  0  0  0  0  0  0  0  0  0
   46.5884   59.1586   30.9354 C   0  0  2  0  0  0  0  0  0  0  0  0
   45.7263   60.3013   30.6335 N   0  0  0  0  0  0  0  0  0  0  0  0
   47.3856   59.3272   32.2655 C   0  0  0  0  0  0  0  0  0  0  0  0
   47.7129   58.0487   33.1085 C   0  0  1  0  0  0  0  0  0  0  0  0
   47.0250   56.8001   32.8006 O   0  0  0  0  0  0  0  0  0  0  0  0
   49.2105   57.6494   33.2249 C   0  0  1  0  0  0  0  0  0  0  0  0
   50.0839   58.5299   33.9441 O   0  0  0  0  0  0  0  0  0  0  0  0
   49.2019   56.1295   33.5769 C   0  0  1  0  0  0  0  0  0  0  0  0
   49.6021   55.7481   34.8712 O   0  0  0  0  0  0  0  0  0  0  0  0
   47.8346   55.6709   33.0601 C   0  0  2  0  0  0  0  0  0  0  0  0
   49.0704   56.2988   26.9754 O   0  0  0  0  0  0  0  0  0  0  0  0
   50.5296   54.6293   28.4624 N   0  0  0  0  0  0  0  0  0  0  0  0
   50.7871   55.6467   29.3883 C   0  0  0  0  0  0  0  0  0  0  0  0
   49.9521   55.7799   30.5800 N   0  0  0  0  0  0  0  0  0  0  0  0
   48.9173   54.9090   30.7945 C   0  0  0  0  0  0  0  0  0  0  0  0
   48.6638   53.8891   29.8567 C   0  0  0  0  0  0  0  0  0  0  0  0
   49.4960   53.7574   28.6689 C   0  0  0  0  0  0  0  0  0  0  0  0
   49.2348   52.6979   27.6940 N   0  0  0  0  0  0  0  0  0  0  0  0
   47.5310   53.1273   30.3229 N   0  0  0  0  0  0  0  0  0  0  0  0
   47.1026   53.6963   31.5453 C   0  0  0  0  0  0  0  0  0  0  0  0
   47.9496   54.7994   31.8551 N   0  0  0  0  0  0  0  0  0  0  0  0
  2  1  1  6  0  0  0
  2  3  1  0  0  0  0
  2  5  1  0  0  0  0
  3  4  1  0  0  0  0
  3 17  1  0  0  0  0
  5  6  1  0  0  0  0
  7  6  1  6  0  0  0
  7  8  1  0  0  0  0
  7  9  1  0  0  0  0
 10  9  1  6  0  0  0
 10 11  1  0  0  0  0
 10 12  1  0  0  0  0
 11 16  1  0  0  0  0
 12 13  1  1  0  0  0
 12 14  1  0  0  0  0
 14 15  1  1  0  0  0
 14 16  1  0  0  0  0
 16 27  1  6  0  0  0
 18 19  2  0  0  0  0
 18 23  1  0  0  0  0
 19 20  1  0  0  0  0
 20 21  2  0  0  0  0
 21 22  1  0  0  0  0
 21 27  1  0  0  0  0
 22 23  2  0  0  0  0
 22 25  1  0  0  0  0
 23 24  1  0  0  0  0
 25 26  2  0  0  0  0
 26 27  1  0  0  0  0
M  END
>  <CHROM.1>
-19.22727765,-116.22673203,159.93527081,-64.29599754,-82.97679818,-13.55913773
87.72600789,48.27289790,56.50914404,30.31047254,1.76453263,1.16927746,-1.83204275

>  <Name>
ligand

>  <RI>
0

>  <Rbt.Current_Directory>
/home/itssahil/PROJECTS/Mol_Feturizer/New_Systems/rnas/3GX2

>  <Rbt.Executable>
rbdock ($Id: //depot/dev/client3/rdock/2013.1/src/exe/rbdock.cxx#4 $)

>  <Rbt.Library>
libRbt.so (2013.1, Build901 2013/11/27)

>  <Rbt.Parameter_File>
/export/apps/rDock/src/rDock_2013.1_src/data/scripts/dock_solv.prm

>  <Rbt.Receptor>
prm/pocket_docking_2.prm

>  <SCORE>
-4.51727

>  <SCORE.INTER>
-5.40199

>  <SCORE.INTER.CONST>
1

>  <SCORE.INTER.POLAR>
0

>  <SCORE.INTER.ROT>
7

>  <SCORE.INTER.SOLV>
23.5323

>  <SCORE.INTER.VDW>
-19.7121

>  <SCORE.INTER.norm>
-0.200074

>  <SCORE.INTRA>
0.881553

>  <SCORE.INTRA.DIHEDRAL>
3.7614

>  <SCORE.INTRA.DIHEDRAL.0>
13.9704

>  <SCORE.INTRA.POLAR>
0

>  <SCORE.INTRA.POLAR.0>
0

>  <SCORE.INTRA.REPUL>
0

>  <SCORE.INTRA.REPUL.0>
0

>  <SCORE.INTRA.SOLV>
1.05268

>  <SCORE.INTRA.SOLV.lig_0>
-70.9758

>  <SCORE.INTRA.VDW>
-1.52549

>  <SCORE.INTRA.VDW.0>
-2.70686

>  <SCORE.INTRA.norm>
0.0326501

>  <SCORE.RESTR>
0.00316121

>  <SCORE.RESTR.CAVITY>
0.00316121

>  <SCORE.RESTR.norm>
0.000117082

>  <SCORE.SYSTEM>
0

>  <SCORE.SYSTEM.CONST>
0

>  <SCORE.SYSTEM.DIHEDRAL>
0

>  <SCORE.SYSTEM.SOLV>
0

>  <SCORE.SYSTEM.norm>
0

>  <SCORE.heavy>
27

>  <SCORE.norm>
-0.167306

>  <RMSD>
5.131

$$$$
ligand
 OpenBabel11021811473D
libRbt.so/2013.1/901 2013/11/27
 27 29  0  0  0  0  0  0  0  0999 V2000
   49.8426   54.3071   29.3599 N   0  0  0  0  0  0  0  0  0  0  0  0
   50.0913   54.1859   27.9252 C   0  0  2  0  0  0  0  0  0  0  0  0
   51.4650   53.6080   27.5785 C   0  0  0  0  0  0  0  0  0  0  0  0
   51.7594   53.4844   26.4362 O   0  0  0  0  0  0  0  0  0  0  0  0
   49.7434   55.4449   27.1035 C   0  0  0  0  0  0  0  0  0  0  0  0
   48.3021   56.0228   27.1650 C   0  0  0  0  0  0  0  0  0  0  0  0
   47.7971   56.4249   28.5763 C   0  0  2  0  0  0  0  0  0  0  0  0
   47.1970   55.3080   29.3059 N   0  0  0  0  0  0  0  0  0  0  0  0
   46.8866   57.6909   28.5373 C   0  0  0  0  0  0  0  0  0  0  0  0
   46.7542   58.5571   29.8352 C   0  0  1  0  0  0  0  0  0  0  0  0
   45.7231   58.2215   30.8106 O   0  0  0  0  0  0  0  0  0  0  0  0
   48.0424   58.7528   30.6826 C   0  0  1  0  0  0  0  0  0  0  0  0
   49.1140   59.5108   30.1060 O   0  0  0  0  0  0  0  0  0  0  0  0
   47.5387   59.1127   32.1146 C   0  0  1  0  0  0  0  0  0  0  0  0
   47.7370   60.4282   32.5743 O   0  0  0  0  0  0  0  0  0  0  0  0
   46.1224   58.5290   32.1311 C   0  0  2  0  0  0  0  0  0  0  0  0
   52.4908   53.6930   28.5409 O   0  0  0  0  0  0  0  0  0  0  0  0
   48.7425   55.0026   35.3228 N   0  0  0  0  0  0  0  0  0  0  0  0
   49.2901   56.0754   34.6100 C   0  0  0  0  0  0  0  0  0  0  0  0
   48.4283   56.9276   33.7940 N   0  0  0  0  0  0  0  0  0  0  0  0
   47.0832   56.6800   33.7261 C   0  0  0  0  0  0  0  0  0  0  0  0
   46.5404   55.5972   34.4451 C   0  0  0  0  0  0  0  0  0  0  0  0
   47.4001   54.7478   35.2575 C   0  0  0  0  0  0  0  0  0  0  0  0
   46.8379   53.6230   36.0059 N   0  0  0  0  0  0  0  0  0  0  0  0
   45.1198   55.5654   34.1966 N   0  0  0  0  0  0  0  0  0  0  0  0
   44.8112   56.6336   33.3218 C   0  0  0  0  0  0  0  0  0  0  0  0
   46.0133   57.3367   33.0206 N   0  0  0  0  0  0  0  0  0  0  0  0
  2  1  1  1  0  0  0
  2  3  1  0  0  0  0
  2  5  1  0  0  0  0
  3  4  1  0  0  0  0
  3 17  1  0  0  0  0
  5  6  1  0  0  0  0
  7  6  1  6  0  0  0
  7  8  1  0  0  0  0
  7  9  1  0  0  0  0
 10  9  1  6  0  0  0
 10 11  1  0  0  0  0
 10 12  1  0  0  0  0
 11 16  1  0  0  0  0
 12 13  1  6  0  0  0
 12 14  1  0  0  0  0
 14 15  1  6  0  0  0
 14 16  1  0  0  0  0
 16 27  1  1  0  0  0
 18 19  2  0  0  0  0
 18 23  1  0  0  0  0
 19 20  1  0  0  0  0
 20 21  2  0  0  0  0
 21 22  1  0  0  0  0
 21 27  1  0  0  0  0
 22 23  2  0  0  0  0
 22 25  1  0  0  0  0
 23 24  1  0  0  0  0
 25 26  2  0  0  0  0
 26 27  1  0  0  0  0
M  END
>  <CHROM.1>
-179.32832272,-56.90200908,58.25846374,-86.35747096,-156.16998899,-88.26553532
118.07030857,48.09103496,56.36833994,31.10500252,-0.60534107,-0.94041760
2.12504177

>  <Name>
ligand

>  <RI>
0

>  <Rbt.Current_Directory>
/home/itssahil/PROJECTS/Mol_Feturizer/New_Systems/rnas/3GX2

>  <Rbt.Executable>
rbdock ($Id: //depot/dev/client3/rdock/2013.1/src/exe/rbdock.cxx#4 $)

>  <Rbt.Library>
libRbt.so (2013.1, Build901 2013/11/27)

>  <Rbt.Parameter_File>
/export/apps/rDock/src/rDock_2013.1_src/data/scripts/dock_solv.prm

>  <Rbt.Receptor>
prm/pocket_docking_5.prm

>  <SCORE>
-5.96308

>  <SCORE.INTER>
-7.47503

>  <SCORE.INTER.CONST>
1

>  <SCORE.INTER.POLAR>
0

>  <SCORE.INTER.ROT>
7

>  <SCORE.INTER.SOLV>
11.9258

>  <SCORE.INTER.VDW>
-17.2253

>  <SCORE.INTER.norm>
-0.276853

>  <SCORE.INTRA>
1.51154

>  <SCORE.INTRA.DIHEDRAL>
-2.77876

>  <SCORE.INTRA.DIHEDRAL.0>
13.9704

>  <SCORE.INTRA.POLAR>
0

>  <SCORE.INTRA.POLAR.0>
0

>  <SCORE.INTRA.REPUL>
0

>  <SCORE.INTRA.REPUL.0>
0

>  <SCORE.INTRA.SOLV>
5.25582

>  <SCORE.INTRA.SOLV.lig_0>
-70.9758

>  <SCORE.INTRA.VDW>
0.273006

>  <SCORE.INTRA.VDW.0>
-2.70686

>  <SCORE.INTRA.norm>
0.0559829

>  <SCORE.RESTR>
0.000417537

>  <SCORE.RESTR.CAVITY>
0.000417537

>  <SCORE.RESTR.norm>
1.54643e-05

>  <SCORE.SYSTEM>
0

>  <SCORE.SYSTEM.CONST>
0

>  <SCORE.SYSTEM.DIHEDRAL>
0

>  <SCORE.SYSTEM.SOLV>
0

>  <SCORE.SYSTEM.norm>
0

>  <SCORE.heavy>
27

>  <SCORE.norm>
-0.220855

>  <RMSD>
5.137

$$$$
ligand
 OpenBabel11021811473D
libRbt.so/2013.1/901 2013/11/27
 27 29  0  0  0  0  0  0  0  0999 V2000
   48.3350   55.4898   25.4515 N   0  0  0  0  0  0  0  0  0  0  0  0
   49.7500   55.6455   25.7807 C   0  0  2  0  0  0  0  0  0  0  0  0
   50.6892   54.8263   24.8930 C   0  0  0  0  0  0  0  0  0  0  0  0
   50.3046   53.7916   24.4589 O   0  0  0  0  0  0  0  0  0  0  0  0
   50.0785   55.5179   27.2830 C   0  0  0  0  0  0  0  0  0  0  0  0
   49.5387   56.5845   28.2761 C   0  0  0  0  0  0  0  0  0  0  0  0
   49.7444   56.2685   29.7815 C   0  0  2  0  0  0  0  0  0  0  0  0
   49.0287   55.0683   30.2144 N   0  0  0  0  0  0  0  0  0  0  0  0
   49.4655   57.5079   30.6868 C   0  0  0  0  0  0  0  0  0  0  0  0
   48.1796   58.3590   30.4142 C   0  0  1  0  0  0  0  0  0  0  0  0
   46.9515   57.6816   30.0141 O   0  0  0  0  0  0  0  0  0  0  0  0
   47.7357   59.3387   31.5363 C   0  0  1  0  0  0  0  0  0  0  0  0
   48.5911   60.4509   31.8307 O   0  0  0  0  0  0  0  0  0  0  0  0
   46.2175   59.5916   31.2808 C   0  0  1  0  0  0  0  0  0  0  0  0
   45.8271   60.8630   30.8205 O   0  0  0  0  0  0  0  0  0  0  0  0
   45.7991   58.3543   30.4802 C   0  0  2  0  0  0  0  0  0  0  0  0
   51.7399   55.4937   24.2326 O   0  0  0  0  0  0  0  0  0  0  0  0
   41.1335   55.5811   30.6491 N   0  0  0  0  0  0  0  0  0  0  0  0
   41.6063   56.3895   29.6089 C   0  0  0  0  0  0  0  0  0  0  0  0
   42.8949   57.0664   29.7364 N   0  0  0  0  0  0  0  0  0  0  0  0
   43.6435   56.9103   30.8723 C   0  0  0  0  0  0  0  0  0  0  0  0
   43.1595   56.0965   31.9151 C   0  0  0  0  0  0  0  0  0  0  0  0
   41.8748   55.4227   31.7877 C   0  0  0  0  0  0  0  0  0  0  0  0
   41.3707   54.5761   32.8696 N   0  0  0  0  0  0  0  0  0  0  0  0
   44.1340   56.1094   32.9786 N   0  0  0  0  0  0  0  0  0  0  0  0
   45.2060   56.9377   32.5709 C   0  0  0  0  0  0  0  0  0  0  0  0
   44.9219   57.4414   31.2687 N   0  0  0  0  0  0  0  0  0  0  0  0
  2  1  1  1  0  0  0
  2  3  1  0  0  0  0
  2  5  1  0  0  0  0
  3  4  1  0  0  0  0
  3 17  1  0  0  0  0
  5  6  1  0  0  0  0
  7  6  1  6  0  0  0
  7  8  1  0  0  0  0
  7  9  1  0  0  0  0
 10  9  1  1  0  0  0
 10 11  1  0  0  0  0
 10 12  1  0  0  0  0
 11 16  1  0  0  0  0
 12 13  1  6  0  0  0
 12 14  1  0  0  0  0
 14 15  1  6  0  0  0
 14 16  1  0  0  0  0
 16 27  1  1  0  0  0
 18 19  2  0  0  0  0
 18 23  1  0  0  0  0
 19 20  1  0  0  0  0
 20 21  2  0  0  0  0
 21 22  1  0  0  0  0
 21 27  1  0  0  0  0
 22 23  2  0  0  0  0
 22 25  1  0  0  0  0
 23 24  1  0  0  0  0
 25 26  2  0  0  0  0
 26 27  1  0  0  0  0
M  END
>  <CHROM.1>
-31.28748178,-65.83851961,171.58295171,-63.28767683,45.65493744,37.34293494
-108.74744612,46.70829042,56.81337540,29.61924754,0.56807384,-0.39357493
-2.34300770

>  <Name>
ligand

>  <RI>
0

>  <Rbt.Current_Directory>
/home/itssahil/PROJECTS/Mol_Feturizer/New_Systems/rnas/3GX2

>  <Rbt.Executable>
rbdock ($Id: //depot/dev/client3/rdock/2013.1/src/exe/rbdock.cxx#4 $)

>  <Rbt.Library>
libRbt.so (2013.1, Build901 2013/11/27)

>  <Rbt.Parameter_File>
/export/apps/rDock/src/rDock_2013.1_src/data/scripts/dock_solv.prm

>  <Rbt.Receptor>
prm/pocket_docking_7.prm

>  <SCORE>
-12.1693

>  <SCORE.INTER>
-9.78225

>  <SCORE.INTER.CONST>
1

>  <SCORE.INTER.POLAR>
0

>  <SCORE.INTER.ROT>
7

>  <SCORE.INTER.SOLV>
11.1788

>  <SCORE.INTER.VDW>
-18.5144

>  <SCORE.INTER.norm>
-0.362305

>  <SCORE.INTRA>
-2.38702

>  <SCORE.INTRA.DIHEDRAL>
-6.69503

>  <SCORE.INTRA.DIHEDRAL.0>
13.9704

>  <SCORE.INTRA.POLAR>
0

>  <SCORE.INTRA.POLAR.0>
0

>  <SCORE.INTRA.REPUL>
0

>  <SCORE.INTRA.REPUL.0>
0

>  <SCORE.INTRA.SOLV>
1.00517

>  <SCORE.INTRA.SOLV.lig_0>
-70.9758

>  <SCORE.INTRA.VDW>
0.457912

>  <SCORE.INTRA.VDW.0>
-2.70686

>  <SCORE.INTRA.norm>
-0.0884081

>  <SCORE.RESTR>
0

>  <SCORE.RESTR.CAVITY>
0

>  <SCORE.RESTR.norm>
0

>  <SCORE.SYSTEM>
0

>  <SCORE.SYSTEM.CONST>
0

>  <SCORE.SYSTEM.DIHEDRAL>
0

>  <SCORE.SYSTEM.SOLV>
0

>  <SCORE.SYSTEM.norm>
0

>  <SCORE.heavy>
27

>  <SCORE.norm>
-0.450714

>  <RMSD>
5.140

$$$$
ligand
 OpenBabel11021811473D
libRbt.so/2013.1/901 2013/11/27
 27 29  0  0  0  0  0  0  0  0999 V2000
   47.5361   53.7932   25.7765 N   0  0  0  0  0  0  0  0  0  0  0  0
   47.6590   55.2204   25.4885 C   0  0  2  0  0  0  0  0  0  0  0  0
   49.0032   55.6179   24.8751 C   0  0  0  0  0  0  0  0  0  0  0  0
   50.0007   55.2665   25.4122 O   0  0  0  0  0  0  0  0  0  0  0  0
   47.2262   56.1489   26.6425 C   0  0  0  0  0  0  0  0  0  0  0  0
   45.7834   56.0405   27.2098 C   0  0  0  0  0  0  0  0  0  0  0  0
   45.5310   56.7745   28.5537 C   0  0  2  0  0  0  0  0  0  0  0  0
   44.1873   56.5448   29.0843 N   0  0  0  0  0  0  0  0  0  0  0  0
   45.9102   58.2858   28.4795 C   0  0  0  0  0  0  0  0  0  0  0  0
   46.5136   58.9688   29.7530 C   0  0  1  0  0  0  0  0  0  0  0  0
   45.7860   58.8875   31.0144 O   0  0  0  0  0  0  0  0  0  0  0  0
   47.9764   58.5956   30.1229 C   0  0  1  0  0  0  0  0  0  0  0  0
   49.0182   59.0039   29.2267 O   0  0  0  0  0  0  0  0  0  0  0  0
   48.1086   58.9192   31.6433 C   0  0  1  0  0  0  0  0  0  0  0  0
   48.9096   60.0137   32.0193 O   0  0  0  0  0  0  0  0  0  0  0  0
   46.6563   58.8644   32.1278 C   0  0  2  0  0  0  0  0  0  0  0  0
   49.0454   55.9422   23.5044 O   0  0  0  0  0  0  0  0  0  0  0  0
   48.7939   55.0123   35.3025 N   0  0  0  0  0  0  0  0  0  0  0  0
   49.4744   56.0258   34.6179 C   0  0  0  0  0  0  0  0  0  0  0  0
   48.7315   56.9837   33.8021 N   0  0  0  0  0  0  0  0  0  0  0  0
   47.3684   56.8933   33.7068 C   0  0  0  0  0  0  0  0  0  0  0  0
   46.6916   55.8691   34.3975 C   0  0  0  0  0  0  0  0  0  0  0  0
   47.4327   54.9144   35.2098 C   0  0  0  0  0  0  0  0  0  0  0  0
   46.7312   53.8503   35.9288 N   0  0  0  0  0  0  0  0  0  0  0  0
   45.2817   56.0045   34.1241 N   0  0  0  0  0  0  0  0  0  0  0  0
   45.1142   57.1143   33.2628 C   0  0  0  0  0  0  0  0  0  0  0  0
   46.3944   57.6791   32.9945 N   0  0  0  0  0  0  0  0  0  0  0  0
  2  1  1  1  0  0  0
  2  3  1  0  0  0  0
  2  5  1  0  0  0  0
  3  4  1  0  0  0  0
  3 17  1  0  0  0  0
  5  6  1  0  0  0  0
  7  6  1  6  0  0  0
  7  8  1  0  0  0  0
  7  9  1  0  0  0  0
 10  9  1  6  0  0  0
 10 11  1  0  0  0  0
 10 12  1  0  0  0  0
 11 16  1  0  0  0  0
 12 13  1  6  0  0  0
 12 14  1  0  0  0  0
 14 15  1  6  0  0  0
 14 16  1  0  0  0  0
 16 27  1  6  0  0  0
 18 19  2  0  0  0  0
 18 23  1  0  0  0  0
 19 20  1  0  0  0  0
 20 21  2  0  0  0  0
 21 22  1  0  0  0  0
 21 27  1  0  0  0  0
 22 23  2  0  0  0  0
 22 25  1  0  0  0  0
 23 24  1  0  0  0  0
 25 26  2  0  0  0  0
 26 27  1  0  0  0  0
M  END
>  <CHROM.1>
-51.09446580,-57.70891641,166.99977626,-175.42279143,-145.12969248,-54.20730512
143.32875887,47.32591236,56.81650649,30.39678477,-1.14249679,-1.35770095
1.93263408

>  <Name>
ligand

>  <RI>
0

>  <Rbt.Current_Directory>
/home/itssahil/PROJECTS/Mol_Feturizer/New_Systems/rnas/3GX2

>  <Rbt.Executable>
rbdock ($Id: //depot/dev/client3/rdock/2013.1/src/exe/rbdock.cxx#4 $)

>  <Rbt.Library>
libRbt.so (2013.1, Build901 2013/11/27)

>  <Rbt.Parameter_File>
/export/apps/rDock/src/rDock_2013.1_src/data/scripts/dock_solv.prm

>  <Rbt.Receptor>
prm/pocket_docking_4.prm

>  <SCORE>
-11.7821

>  <SCORE.INTER>
-10.0924

>  <SCORE.INTER.CONST>
1

>  <SCORE.INTER.POLAR>
0

>  <SCORE.INTER.ROT>
7

>  <SCORE.INTER.SOLV>
15.1412

>  <SCORE.INTER.VDW>
-20.042

>  <SCORE.INTER.norm>
-0.373791

>  <SCORE.INTRA>
-1.68974

>  <SCORE.INTRA.DIHEDRAL>
-5.18094

>  <SCORE.INTRA.DIHEDRAL.0>
13.9704

>  <SCORE.INTRA.POLAR>
0

>  <SCORE.INTRA.POLAR.0>
0

>  <SCORE.INTRA.REPUL>
0

>  <SCORE.INTRA.REPUL.0>
0

>  <SCORE.INTRA.SOLV>
0.695945

>  <SCORE.INTRA.SOLV.lig_0>
-70.9758

>  <SCORE.INTRA.VDW>
0.55276

>  <SCORE.INTRA.VDW.0>
-2.70686

>  <SCORE.INTRA.norm>
-0.0625829

>  <SCORE.RESTR>
0

>  <SCORE.RESTR.CAVITY>
0

>  <SCORE.RESTR.norm>
0

>  <SCORE.SYSTEM>
0

>  <SCORE.SYSTEM.CONST>
0

>  <SCORE.SYSTEM.DIHEDRAL>
0

>  <SCORE.SYSTEM.SOLV>
0

>  <SCORE.SYSTEM.norm>
0

>  <SCORE.heavy>
27

>  <SCORE.norm>
-0.436374

>  <RMSD>
5.144

$$$$
ligand
 OpenBabel11021811473D
libRbt.so/2013.1/901 2013/11/27
 27 29  0  0  0  0  0  0  0  0999 V2000
   48.6586   54.0708   27.9124 N   0  0  0  0  0  0  0  0  0  0  0  0
   49.8863   54.8364   27.7085 C   0  0  2  0  0  0  0  0  0  0  0  0
   51.1670   54.0219   27.9024 C   0  0  0  0  0  0  0  0  0  0  0  0
   52.1103   54.2745   27.2292 O   0  0  0  0  0  0  0  0  0  0  0  0
   49.9233   56.1976   28.4344 C   0  0  0  0  0  0  0  0  0  0  0  0
   48.9007   57.3003   28.0423 C   0  0  0  0  0  0  0  0  0  0  0  0
   47.4142   56.9823   28.3546 C   0  0  2  0  0  0  0  0  0  0  0  0
   46.7981   56.1056   27.3588 N   0  0  0  0  0  0  0  0  0  0  0  0
   46.5822   58.2719   28.6339 C   0  0  0  0  0  0  0  0  0  0  0  0
   46.7241   58.9656   30.0307 C   0  0  1  0  0  0  0  0  0  0  0  0
   45.7492   58.6673   31.0737 O   0  0  0  0  0  0  0  0  0  0  0  0
   48.1020   58.8415   30.7391 C   0  0  1  0  0  0  0  0  0  0  0  0
   49.2266   59.4930   30.1341 O   0  0  0  0  0  0  0  0  0  0  0  0
   47.8064   59.0799   32.2523 C   0  0  1  0  0  0  0  0  0  0  0  0
   48.2686   60.2741   32.8363 O   0  0  0  0  0  0  0  0  0  0  0  0
   46.3197   58.7281   32.3654 C   0  0  2  0  0  0  0  0  0  0  0  0
   51.3649   53.3662   29.1339 O   0  0  0  0  0  0  0  0  0  0  0  0
   48.5358   54.8012   35.3912 N   0  0  0  0  0  0  0  0  0  0  0  0
   49.1776   55.9166   34.8408 C   0  0  0  0  0  0  0  0  0  0  0  0
   48.4183   56.8791   34.0459 N   0  0  0  0  0  0  0  0  0  0  0  0
   47.0774   56.6934   33.8391 C   0  0  0  0  0  0  0  0  0  0  0  0
   46.4397   55.5672   34.3950 C   0  0  0  0  0  0  0  0  0  0  0  0
   47.1972   54.6079   35.1865 C   0  0  0  0  0  0  0  0  0  0  0  0
   46.5363   53.4378   35.7656 N   0  0  0  0  0  0  0  0  0  0  0  0
   45.0464   55.6169   34.0248 N   0  0  0  0  0  0  0  0  0  0  0  0
   44.8499   56.7779   33.2407 C   0  0  0  0  0  0  0  0  0  0  0  0
   46.0952   57.4588   33.1160 N   0  0  0  0  0  0  0  0  0  0  0  0
  2  1  1  1  0  0  0
  2  3  1  0  0  0  0
  2  5  1  0  0  0  0
  3  4  1  0  0  0  0
  3 17  1  0  0  0  0
  5  6  1  0  0  0  0
  7  6  1  6  0  0  0
  7  8  1  0  0  0  0
  7  9  1  0  0  0  0
 10  9  1  6  0  0  0
 10 11  1  0  0  0  0
 10 12  1  0  0  0  0
 11 16  1  0  0  0  0
 12 13  1  6  0  0  0
 12 14  1  0  0  0  0
 14 15  1  6  0  0  0
 14 16  1  0  0  0  0
 16 27  1  6  0  0  0
 18 19  2  0  0  0  0
 18 23  1  0  0  0  0
 19 20  1  0  0  0  0
 20 21  2  0  0  0  0
 21 22  1  0  0  0  0
 21 27  1  0  0  0  0
 22 23  2  0  0  0  0
 22 25  1  0  0  0  0
 23 24  1  0  0  0  0
 25 26  2  0  0  0  0
 26 27  1  0  0  0  0
M  END
>  <CHROM.1>
145.92657002,-63.71219682,65.74109411,-79.91739586,-77.34096862,-96.20922463
131.50553702,47.99936205,56.58465218,31.17014309,-0.67760620,-0.96743176
2.19063327

>  <Name>
ligand

>  <RI>
0

>  <Rbt.Current_Directory>
/home/itssahil/PROJECTS/Mol_Feturizer/New_Systems/rnas/3GX2

>  <Rbt.Executable>
rbdock ($Id: //depot/dev/client3/rdock/2013.1/src/exe/rbdock.cxx#4 $)

>  <Rbt.Library>
libRbt.so (2013.1, Build901 2013/11/27)

>  <Rbt.Parameter_File>
/export/apps/rDock/src/rDock_2013.1_src/data/scripts/dock_solv.prm

>  <Rbt.Receptor>
prm/pocket_docking_4.prm

>  <SCORE>
-8.06667

>  <SCORE.INTER>
-8.9202

>  <SCORE.INTER.CONST>
1

>  <SCORE.INTER.POLAR>
0

>  <SCORE.INTER.ROT>
7

>  <SCORE.INTER.SOLV>
13.2089

>  <SCORE.INTER.VDW>
-18.6164

>  <SCORE.INTER.norm>
-0.330378

>  <SCORE.INTRA>
0.853523

>  <SCORE.INTRA.DIHEDRAL>
-2.80016

>  <SCORE.INTRA.DIHEDRAL.0>
13.9704

>  <SCORE.INTRA.POLAR>
0

>  <SCORE.INTRA.POLAR.0>
0

>  <SCORE.INTRA.REPUL>
0

>  <SCORE.INTRA.REPUL.0>
0

>  <SCORE.INTRA.SOLV>
4.03985

>  <SCORE.INTRA.SOLV.lig_0>
-70.9758

>  <SCORE.INTRA.VDW>
0.233679

>  <SCORE.INTRA.VDW.0>
-2.70686

>  <SCORE.INTRA.norm>
0.031612

>  <SCORE.RESTR>
0

>  <SCORE.RESTR.CAVITY>
0

>  <SCORE.RESTR.norm>
0

>  <SCORE.SYSTEM>
0

>  <SCORE.SYSTEM.CONST>
0

>  <SCORE.SYSTEM.DIHEDRAL>
0

>  <SCORE.SYSTEM.SOLV>
0

>  <SCORE.SYSTEM.norm>
0

>  <SCORE.heavy>
27

>  <SCORE.norm>
-0.298766

>  <RMSD>
5.151

$$$$
ligand
 OpenBabel11021811473D
libRbt.so/2013.1/901 2013/11/27
 27 29  0  0  0  0  0  0  0  0999 V2000
   49.5704   52.4370   28.0479 N   0  0  0  0  0  0  0  0  0  0  0  0
   49.1201   53.8048   28.2956 C   0  0  2  0  0  0  0  0  0  0  0  0
   49.9085   54.5311   29.3875 C   0  0  0  0  0  0  0  0  0  0  0  0
   49.9633   54.0466   30.4687 O   0  0  0  0  0  0  0  0  0  0  0  0
   47.5929   53.9608   28.4514 C   0  0  0  0  0  0  0  0  0  0  0  0
   46.9807   55.3824   28.5908 C   0  0  0  0  0  0  0  0  0  0  0  0
   47.0641   56.2787   27.3267 C   0  0  2  0  0  0  0  0  0  0  0  0
   48.4235   56.3932   26.7985 N   0  0  0  0  0  0  0  0  0  0  0  0
   46.3704   57.6599   27.5373 C   0  0  0  0  0  0  0  0  0  0  0  0
   46.7141   58.4807   28.8259 C   0  0  1  0  0  0  0  0  0  0  0  0
   45.9788   58.2113   30.0563 O   0  0  0  0  0  0  0  0  0  0  0  0
   48.2056   58.5096   29.2624 C   0  0  1  0  0  0  0  0  0  0  0  0
   49.1407   59.1783   28.4058 O   0  0  0  0  0  0  0  0  0  0  0  0
   48.1797   58.8592   30.7826 C   0  0  1  0  0  0  0  0  0  0  0  0
   48.6445   60.1276   31.1776 O   0  0  0  0  0  0  0  0  0  0  0  0
   46.7738   58.4219   31.2058 C   0  0  2  0  0  0  0  0  0  0  0  0
   50.9100   55.4427   28.9980 O   0  0  0  0  0  0  0  0  0  0  0  0
   49.1595   55.8810   35.3699 N   0  0  0  0  0  0  0  0  0  0  0  0
   49.4917   57.1293   34.8311 C   0  0  0  0  0  0  0  0  0  0  0  0
   48.7355   57.6626   33.7002 N   0  0  0  0  0  0  0  0  0  0  0  0
   47.6995   56.9436   33.1664 C   0  0  0  0  0  0  0  0  0  0  0  0
   47.3730   55.6874   33.7135 C   0  0  0  0  0  0  0  0  0  0  0  0
   48.1276   55.1562   34.8400 C   0  0  0  0  0  0  0  0  0  0  0  0
   47.7892   53.8518   35.4104 N   0  0  0  0  0  0  0  0  0  0  0  0
   46.2583   55.1540   32.9692 N   0  0  0  0  0  0  0  0  0  0  0  0
   45.9177   56.0952   31.9694 C   0  0  0  0  0  0  0  0  0  0  0  0
   46.7972   57.2110   32.0765 N   0  0  0  0  0  0  0  0  0  0  0  0
  2  1  1  1  0  0  0
  2  3  1  0  0  0  0
  2  5  1  0  0  0  0
  3  4  1  0  0  0  0
  3 17  1  0  0  0  0
  5  6  1  0  0  0  0
  7  6  1  1  0  0  0
  7  8  1  0  0  0  0
  7  9  1  0  0  0  0
 10  9  1  6  0  0  0
 10 11  1  0  0  0  0
 10 12  1  0  0  0  0
 11 16  1  0  0  0  0
 12 13  1  6  0  0  0
 12 14  1  0  0  0  0
 14 15  1  6  0  0  0
 14 16  1  0  0  0  0
 16 27  1  6  0  0  0
 18 19  2  0  0  0  0
 18 23  1  0  0  0  0
 19 20  1  0  0  0  0
 20 21  2  0  0  0  0
 21 22  1  0  0  0  0
 21 27  1  0  0  0  0
 22 23  2  0  0  0  0
 22 25  1  0  0  0  0
 23 24  1  0  0  0  0
 25 26  2  0  0  0  0
 26 27  1  0  0  0  0
M  END
>  <CHROM.1>
-56.91263123,-174.54841746,68.28019592,-53.31217411,48.78103333,-85.67248721
166.04623007,48.06588274,56.40980151,30.72570292,-1.50004359,-1.25817109
1.65796320

>  <Name>
ligand

>  <RI>
0

>  <Rbt.Current_Directory>
/home/itssahil/PROJECTS/Mol_Feturizer/New_Systems/rnas/3GX2

>  <Rbt.Executable>
rbdock ($Id: //depot/dev/client3/rdock/2013.1/src/exe/rbdock.cxx#4 $)

>  <Rbt.Library>
libRbt.so (2013.1, Build901 2013/11/27)

>  <Rbt.Parameter_File>
/export/apps/rDock/src/rDock_2013.1_src/data/scripts/dock_solv.prm

>  <Rbt.Receptor>
prm/pocket_docking_2.prm

>  <SCORE>
-4.12658

>  <SCORE.INTER>
-2.99336

>  <SCORE.INTER.CONST>
1

>  <SCORE.INTER.POLAR>
0

>  <SCORE.INTER.ROT>
7

>  <SCORE.INTER.SOLV>
13.6216

>  <SCORE.INTER.VDW>
-14.8028

>  <SCORE.INTER.norm>
-0.110865

>  <SCORE.INTRA>
-2.01813

>  <SCORE.INTRA.DIHEDRAL>
-6.47785

>  <SCORE.INTRA.DIHEDRAL.0>
13.9704

>  <SCORE.INTRA.POLAR>
0

>  <SCORE.INTRA.POLAR.0>
0

>  <SCORE.INTRA.REPUL>
0

>  <SCORE.INTRA.REPUL.0>
0

>  <SCORE.INTRA.SOLV>
4.47853

>  <SCORE.INTRA.SOLV.lig_0>
-70.9758

>  <SCORE.INTRA.VDW>
-1.01847

>  <SCORE.INTRA.VDW.0>
-2.70686

>  <SCORE.INTRA.norm>
-0.0747454

>  <SCORE.RESTR>
0.884907

>  <SCORE.RESTR.CAVITY>
0.884907

>  <SCORE.RESTR.norm>
0.0327743

>  <SCORE.SYSTEM>
0

>  <SCORE.SYSTEM.CONST>
0

>  <SCORE.SYSTEM.DIHEDRAL>
0

>  <SCORE.SYSTEM.SOLV>
0

>  <SCORE.SYSTEM.norm>
0

>  <SCORE.heavy>
27

>  <SCORE.norm>
-0.152836

>  <RMSD>
5.153

$$$$
ligand
 OpenBabel11021811473D
libRbt.so/2013.1/901 2013/11/27
 27 29  0  0  0  0  0  0  0  0999 V2000
   47.4027   59.4858   29.5034 N   0  0  0  0  0  0  0  0  0  0  0  0
   46.4169   59.6173   30.5738 C   0  0  2  0  0  0  0  0  0  0  0  0
   46.0058   61.0618   30.8669 C   0  0  0  0  0  0  0  0  0  0  0  0
   44.9468   61.2636   31.3614 O   0  0  0  0  0  0  0  0  0  0  0  0
   46.7425   58.8136   31.8502 C   0  0  0  0  0  0  0  0  0  0  0  0
   45.5808   58.2400   32.7085 C   0  0  0  0  0  0  0  0  0  0  0  0
   45.1457   56.7893   32.3699 C   0  0  2  0  0  0  0  0  0  0  0  0
   43.7139   56.6743   32.0928 N   0  0  0  0  0  0  0  0  0  0  0  0
   45.6491   55.7610   33.4294 C   0  0  0  0  0  0  0  0  0  0  0  0
   47.1527   55.3250   33.3930 C   0  0  1  0  0  0  0  0  0  0  0  0
   47.5509   54.2208   32.5274 O   0  0  0  0  0  0  0  0  0  0  0  0
   48.1995   56.4385   33.1097 C   0  0  1  0  0  0  0  0  0  0  0  0
   48.3661   57.4667   34.0947 O   0  0  0  0  0  0  0  0  0  0  0  0
   49.4570   55.6893   32.5697 C   0  0  1  0  0  0  0  0  0  0  0  0
   50.5984   55.6358   33.3914 O   0  0  0  0  0  0  0  0  0  0  0  0
   48.8670   54.3798   32.0369 C   0  0  2  0  0  0  0  0  0  0  0  0
   47.0180   62.0324   31.0047 O   0  0  0  0  0  0  0  0  0  0  0  0
   49.0308   57.1567   27.3733 N   0  0  0  0  0  0  0  0  0  0  0  0
   49.0112   57.6757   28.6729 C   0  0  0  0  0  0  0  0  0  0  0  0
   48.9659   56.7726   29.8207 N   0  0  0  0  0  0  0  0  0  0  0  0
   48.9443   55.4170   29.6278 C   0  0  0  0  0  0  0  0  0  0  0  0
   48.9624   54.9031   28.3164 C   0  0  0  0  0  0  0  0  0  0  0  0
   49.0068   55.8037   27.1730 C   0  0  0  0  0  0  0  0  0  0  0  0
   49.0266   55.2716   25.8100 N   0  0  0  0  0  0  0  0  0  0  0  0
   48.9314   53.4634   28.4023 N   0  0  0  0  0  0  0  0  0  0  0  0
   48.8918   53.1141   29.7727 C   0  0  0  0  0  0  0  0  0  0  0  0
   48.9011   54.3098   30.5474 N   0  0  0  0  0  0  0  0  0  0  0  0
  2  1  1  6  0  0  0
  2  3  1  0  0  0  0
  2  5  1  0  0  0  0
  3  4  1  0  0  0  0
  3 17  1  0  0  0  0
  5  6  1  0  0  0  0
  7  6  1  1  0  0  0
  7  8  1  0  0  0  0
  7  9  1  0  0  0  0
 10  9  1  6  0  0  0
 10 11  1  0  0  0  0
 10 12  1  0  0  0  0
 11 16  1  0  0  0  0
 12 13  1  1  0  0  0
 12 14  1  0  0  0  0
 14 15  1  1  0  0  0
 14 16  1  0  0  0  0
 16 27  1  6  0  0  0
 18 19  2  0  0  0  0
 18 23  1  0  0  0  0
 19 20  1  0  0  0  0
 20 21  2  0  0  0  0
 21 22  1  0  0  0  0
 21 27  1  0  0  0  0
 22 23  2  0  0  0  0
 22 25  1  0  0  0  0
 23 24  1  0  0  0  0
 25 26  2  0  0  0  0
 26 27  1  0  0  0  0
M  END
>  <CHROM.1>
155.27322333,-147.93120430,92.47881061,-125.93712707,-76.91453937,-86.38618387
99.09794406,47.69484209,56.83839233,30.90677838,-3.00044850,-1.05803635,2.19415861

>  <Name>
ligand

>  <RI>
0

>  <Rbt.Current_Directory>
/home/itssahil/PROJECTS/Mol_Feturizer/New_Systems/rnas/3GX2

>  <Rbt.Executable>
rbdock ($Id: //depot/dev/client3/rdock/2013.1/src/exe/rbdock.cxx#4 $)

>  <Rbt.Library>
libRbt.so (2013.1, Build901 2013/11/27)

>  <Rbt.Parameter_File>
/export/apps/rDock/src/rDock_2013.1_src/data/scripts/dock_solv.prm

>  <Rbt.Receptor>
prm/pocket_docking_2.prm

>  <SCORE>
3.11157

>  <SCORE.INTER>
-2.74813

>  <SCORE.INTER.CONST>
1

>  <SCORE.INTER.POLAR>
0

>  <SCORE.INTER.ROT>
7

>  <SCORE.INTER.SOLV>
17.9423

>  <SCORE.INTER.VDW>
-16.0795

>  <SCORE.INTER.norm>
-0.101782

>  <SCORE.INTRA>
3.67033

>  <SCORE.INTRA.DIHEDRAL>
5.37193

>  <SCORE.INTRA.DIHEDRAL.0>
13.9704

>  <SCORE.INTRA.POLAR>
0

>  <SCORE.INTRA.POLAR.0>
0

>  <SCORE.INTRA.REPUL>
0

>  <SCORE.INTRA.REPUL.0>
0

>  <SCORE.INTRA.SOLV>
1.50874

>  <SCORE.INTRA.SOLV.lig_0>
-70.9758

>  <SCORE.INTRA.VDW>
0.229997

>  <SCORE.INTRA.VDW.0>
-2.70686

>  <SCORE.INTRA.norm>
0.135938

>  <SCORE.RESTR>
2.18937

>  <SCORE.RESTR.CAVITY>
2.18937

>  <SCORE.RESTR.norm>
0.0810877

>  <SCORE.SYSTEM>
0

>  <SCORE.SYSTEM.CONST>
0

>  <SCORE.SYSTEM.DIHEDRAL>
0

>  <SCORE.SYSTEM.SOLV>
0

>  <SCORE.SYSTEM.norm>
0

>  <SCORE.heavy>
27

>  <SCORE.norm>
0.115243

>  <RMSD>
5.160

$$$$
ligand
 OpenBabel11021811473D
libRbt.so/2013.1/901 2013/11/27
 27 29  0  0  0  0  0  0  0  0999 V2000
   49.1077   55.3025   25.6080 N   0  0  0  0  0  0  0  0  0  0  0  0
   47.9058   54.7472   26.2263 C   0  0  2  0  0  0  0  0  0  0  0  0
   47.2014   53.6879   25.3760 C   0  0  0  0  0  0  0  0  0  0  0  0
   47.3092   53.7404   24.1960 O   0  0  0  0  0  0  0  0  0  0  0  0
   46.9349   55.7988   26.8031 C   0  0  0  0  0  0  0  0  0  0  0  0
   47.3121   56.5510   28.1096 C   0  0  0  0  0  0  0  0  0  0  0  0
   48.3928   57.6551   27.9633 C   0  0  2  0  0  0  0  0  0  0  0  0
   49.6611   57.1451   27.4425 N   0  0  0  0  0  0  0  0  0  0  0  0
   48.5592   58.4930   29.2685 C   0  0  0  0  0  0  0  0  0  0  0  0
   47.2710   58.9788   30.0147 C   0  0  1  0  0  0  0  0  0  0  0  0
   46.2544   58.0012   30.3862 O   0  0  0  0  0  0  0  0  0  0  0  0
   47.4824   59.8276   31.2996 C   0  0  1  0  0  0  0  0  0  0  0  0
   48.0696   61.1273   31.1540 O   0  0  0  0  0  0  0  0  0  0  0  0
   46.1590   59.6757   32.1119 C   0  0  1  0  0  0  0  0  0  0  0  0
   45.3131   60.7960   32.2133 O   0  0  0  0  0  0  0  0  0  0  0  0
   45.5838   58.3604   31.5774 C   0  0  2  0  0  0  0  0  0  0  0  0
   46.8731   52.4558   25.9759 O   0  0  0  0  0  0  0  0  0  0  0  0
   48.6736   55.6413   35.1195 N   0  0  0  0  0  0  0  0  0  0  0  0
   49.0572   56.7080   34.2986 C   0  0  0  0  0  0  0  0  0  0  0  0
   48.0854   57.3243   33.3981 N   0  0  0  0  0  0  0  0  0  0  0  0
   46.7973   56.8613   33.3566 C   0  0  0  0  0  0  0  0  0  0  0  0
   46.4201   55.7861   34.1848 C   0  0  0  0  0  0  0  0  0  0  0  0
   47.3893   55.1719   35.0814 C   0  0  0  0  0  0  0  0  0  0  0  0
   46.9991   54.0555   35.9432 N   0  0  0  0  0  0  0  0  0  0  0  0
   45.0265   55.5044   33.9411 N   0  0  0  0  0  0  0  0  0  0  0  0
   44.5680   56.4144   32.9597 C   0  0  0  0  0  0  0  0  0  0  0  0
   45.6492   57.2640   32.5865 N   0  0  0  0  0  0  0  0  0  0  0  0
  2  1  1  6  0  0  0
  2  3  1  0  0  0  0
  2  5  1  0  0  0  0
  3  4  1  0  0  0  0
  3 17  1  0  0  0  0
  5  6  1  0  0  0  0
  7  6  1  1  0  0  0
  7  8  1  0  0  0  0
  7  9  1  0  0  0  0
 10  9  1  1  0  0  0
 10 11  1  0  0  0  0
 10 12  1  0  0  0  0
 11 16  1  0  0  0  0
 12 13  1  6  0  0  0
 12 14  1  0  0  0  0
 14 15  1  6  0  0  0
 14 16  1  0  0  0  0
 16 27  1  1  0  0  0
 18 19  2  0  0  0  0
 18 23  1  0  0  0  0
 19 20  1  0  0  0  0
 20 21  2  0  0  0  0
 21 22  1  0  0  0  0
 21 27  1  0  0  0  0
 22 23  2  0  0  0  0
 22 25  1  0  0  0  0
 23 24  1  0  0  0  0
 25 26  2  0  0  0  0
 26 27  1  0  0  0  0
M  END
>  <CHROM.1>
-27.94677096,-72.91202576,75.09202020,-59.06295970,-44.79659940,53.75598075
73.03079529,47.18597383,56.79385257,30.50069487,-0.42299815,1.44380218,0.13441057

>  <Name>
ligand

>  <RI>
0

>  <Rbt.Current_Directory>
/home/itssahil/PROJECTS/Mol_Feturizer/New_Systems/rnas/3GX2

>  <Rbt.Executable>
rbdock ($Id: //depot/dev/client3/rdock/2013.1/src/exe/rbdock.cxx#4 $)

>  <Rbt.Library>
libRbt.so (2013.1, Build901 2013/11/27)

>  <Rbt.Parameter_File>
/export/apps/rDock/src/rDock_2013.1_src/data/scripts/dock_solv.prm

>  <Rbt.Receptor>
prm/pocket_docking_6.prm

>  <SCORE>
-10.3145

>  <SCORE.INTER>
-8.99314

>  <SCORE.INTER.CONST>
1

>  <SCORE.INTER.POLAR>
0

>  <SCORE.INTER.ROT>
7

>  <SCORE.INTER.SOLV>
16.2983

>  <SCORE.INTER.VDW>
-19.6949

>  <SCORE.INTER.norm>
-0.333079

>  <SCORE.INTRA>
-1.32132

>  <SCORE.INTRA.DIHEDRAL>
-7.04939

>  <SCORE.INTRA.DIHEDRAL.0>
13.9704

>  <SCORE.INTRA.POLAR>
0

>  <SCORE.INTRA.POLAR.0>
0

>  <SCORE.INTRA.REPUL>
0

>  <SCORE.INTRA.REPUL.0>
0

>  <SCORE.INTRA.SOLV>
3.86311

>  <SCORE.INTRA.SOLV.lig_0>
-70.9758

>  <SCORE.INTRA.VDW>
0.271818

>  <SCORE.INTRA.VDW.0>
-2.70686

>  <SCORE.INTRA.norm>
-0.0489377

>  <SCORE.RESTR>
0

>  <SCORE.RESTR.CAVITY>
0

>  <SCORE.RESTR.norm>
0

>  <SCORE.SYSTEM>
0

>  <SCORE.SYSTEM.CONST>
0

>  <SCORE.SYSTEM.DIHEDRAL>
0

>  <SCORE.SYSTEM.SOLV>
0

>  <SCORE.SYSTEM.norm>
0

>  <SCORE.heavy>
27

>  <SCORE.norm>
-0.382017

>  <RMSD>
5.160

$$$$
ligand
 OpenBabel11021811473D
libRbt.so/2013.1/901 2013/11/27
 27 29  0  0  0  0  0  0  0  0999 V2000
   50.5262   55.9547   28.6754 N   0  0  0  0  0  0  0  0  0  0  0  0
   50.3206   55.3113   29.9711 C   0  0  2  0  0  0  0  0  0  0  0  0
   50.2130   53.7867   29.8985 C   0  0  0  0  0  0  0  0  0  0  0  0
   50.4366   53.2482   28.8656 O   0  0  0  0  0  0  0  0  0  0  0  0
   49.2172   55.9516   30.8392 C   0  0  0  0  0  0  0  0  0  0  0  0
   48.9859   55.4324   32.2856 C   0  0  0  0  0  0  0  0  0  0  0  0
   47.6896   55.9281   32.9801 C   0  0  2  0  0  0  0  0  0  0  0  0
   46.4896   55.7008   32.1748 N   0  0  0  0  0  0  0  0  0  0  0  0
   47.8180   57.3979   33.4866 C   0  0  0  0  0  0  0  0  0  0  0  0
   47.4690   58.5624   32.4994 C   0  0  1  0  0  0  0  0  0  0  0  0
   48.3147   58.7802   31.3313 O   0  0  0  0  0  0  0  0  0  0  0  0
   46.0185   58.5986   31.9419 C   0  0  1  0  0  0  0  0  0  0  0  0
   44.9533   58.8611   32.8647 O   0  0  0  0  0  0  0  0  0  0  0  0
   46.1078   59.4297   30.6246 C   0  0  1  0  0  0  0  0  0  0  0  0
   45.5236   60.7101   30.6094 O   0  0  0  0  0  0  0  0  0  0  0  0
   47.5817   59.2846   30.2330 C   0  0  2  0  0  0  0  0  0  0  0  0
   50.3354   53.0480   31.0923 O   0  0  0  0  0  0  0  0  0  0  0  0
   46.3989   54.5827   27.7876 N   0  0  0  0  0  0  0  0  0  0  0  0
   45.9716   55.0183   29.0471 C   0  0  0  0  0  0  0  0  0  0  0  0
   46.3918   56.3239   29.5510 N   0  0  0  0  0  0  0  0  0  0  0  0
   47.2028   57.1247   28.7918 C   0  0  0  0  0  0  0  0  0  0  0  0
   47.6298   56.6778   27.5261 C   0  0  0  0  0  0  0  0  0  0  0  0
   47.2112   55.3762   27.0249 C   0  0  0  0  0  0  0  0  0  0  0  0
   47.6531   54.9106   25.7099 N   0  0  0  0  0  0  0  0  0  0  0  0
   48.4646   57.7037   26.9503 N   0  0  0  0  0  0  0  0  0  0  0  0
   48.5396   58.7694   27.8778 C   0  0  0  0  0  0  0  0  0  0  0  0
   47.7633   58.4306   29.0236 N   0  0  0  0  0  0  0  0  0  0  0  0
  2  1  1  6  0  0  0
  2  3  1  0  0  0  0
  2  5  1  0  0  0  0
  3  4  1  0  0  0  0
  3 17  1  0  0  0  0
  5  6  1  0  0  0  0
  7  6  1  6  0  0  0
  7  8  1  0  0  0  0
  7  9  1  0  0  0  0
 10  9  1  6  0  0  0
 10 11  1  0  0  0  0
 10 12  1  0  0  0  0
 11 16  1  0  0  0  0
 12 13  1  1  0  0  0
 12 14  1  0  0  0  0
 14 15  1  1  0  0  0
 14 16  1  0  0  0  0
 16 27  1  6  0  0  0
 18 19  2  0  0  0  0
 18 23  1  0  0  0  0
 19 20  1  0  0  0  0
 20 21  2  0  0  0  0
 21 22  1  0  0  0  0
 21 27  1  0  0  0  0
 22 23  2  0  0  0  0
 22 25  1  0  0  0  0
 23 24  1  0  0  0  0
 25 26  2  0  0  0  0
 26 27  1  0  0  0  0
M  END
>  <CHROM.1>
7.65439931,-174.90181160,-168.28873553,52.31752993,87.27265927,-66.65808822
73.19110288,47.83784262,56.69847345,30.04385950,0.60721100,0.96867525,-1.66941959

>  <Name>
ligand

>  <RI>
0

>  <Rbt.Current_Directory>
/home/itssahil/PROJECTS/Mol_Feturizer/New_Systems/rnas/3GX2

>  <Rbt.Executable>
rbdock ($Id: //depot/dev/client3/rdock/2013.1/src/exe/rbdock.cxx#4 $)

>  <Rbt.Library>
libRbt.so (2013.1, Build901 2013/11/27)

>  <Rbt.Parameter_File>
/export/apps/rDock/src/rDock_2013.1_src/data/scripts/dock_solv.prm

>  <Rbt.Receptor>
prm/pocket_docking_3.prm

>  <SCORE>
-7.45474

>  <SCORE.INTER>
-5.06422

>  <SCORE.INTER.CONST>
1

>  <SCORE.INTER.POLAR>
0

>  <SCORE.INTER.ROT>
7

>  <SCORE.INTER.SOLV>
13.0184

>  <SCORE.INTER.VDW>
-15.9823

>  <SCORE.INTER.norm>
-0.187564

>  <SCORE.INTRA>
-2.39052

>  <SCORE.INTRA.DIHEDRAL>
-5.69749

>  <SCORE.INTRA.DIHEDRAL.0>
13.9704

>  <SCORE.INTRA.POLAR>
0

>  <SCORE.INTRA.POLAR.0>
0

>  <SCORE.INTRA.REPUL>
0

>  <SCORE.INTRA.REPUL.0>
0

>  <SCORE.INTRA.SOLV>
6.26498

>  <SCORE.INTRA.SOLV.lig_0>
-70.9758

>  <SCORE.INTRA.VDW>
-2.67427

>  <SCORE.INTRA.VDW.0>
-2.70686

>  <SCORE.INTRA.norm>
-0.0885378

>  <SCORE.RESTR>
0

>  <SCORE.RESTR.CAVITY>
0

>  <SCORE.RESTR.norm>
0

>  <SCORE.SYSTEM>
0

>  <SCORE.SYSTEM.CONST>
0

>  <SCORE.SYSTEM.DIHEDRAL>
0

>  <SCORE.SYSTEM.SOLV>
0

>  <SCORE.SYSTEM.norm>
0

>  <SCORE.heavy>
27

>  <SCORE.norm>
-0.276102

>  <RMSD>
5.173

$$$$
ligand
 OpenBabel11021811473D
libRbt.so/2013.1/901 2013/11/27
 27 29  0  0  0  0  0  0  0  0999 V2000
   47.2414   53.3037   26.0135 N   0  0  0  0  0  0  0  0  0  0  0  0
   47.3721   54.7448   26.2163 C   0  0  2  0  0  0  0  0  0  0  0  0
   48.8142   55.2171   26.4131 C   0  0  0  0  0  0  0  0  0  0  0  0
   49.2323   56.0782   25.7128 O   0  0  0  0  0  0  0  0  0  0  0  0
   46.3974   55.3392   27.2545 C   0  0  0  0  0  0  0  0  0  0  0  0
   46.4241   56.8665   27.5403 C   0  0  0  0  0  0  0  0  0  0  0  0
   45.3398   57.3875   28.5207 C   0  0  2  0  0  0  0  0  0  0  0  0
   43.9794   57.0735   28.0842 N   0  0  0  0  0  0  0  0  0  0  0  0
   45.5381   58.8945   28.8714 C   0  0  0  0  0  0  0  0  0  0  0  0
   46.5449   59.2711   30.0103 C   0  0  1  0  0  0  0  0  0  0  0  0
   46.1137   59.1728   31.4001 O   0  0  0  0  0  0  0  0  0  0  0  0
   47.9309   58.5683   29.9823 C   0  0  1  0  0  0  0  0  0  0  0  0
   48.8143   58.8737   28.8953 O   0  0  0  0  0  0  0  0  0  0  0  0
   48.4640   58.6578   31.4458 C   0  0  1  0  0  0  0  0  0  0  0  0
   49.5531   59.5116   31.7019 O   0  0  0  0  0  0  0  0  0  0  0  0
   47.1799   58.8313   32.2629 C   0  0  2  0  0  0  0  0  0  0  0  0
   49.4273   54.9974   27.6627 O   0  0  0  0  0  0  0  0  0  0  0  0
   49.1169   54.6302   35.1064 N   0  0  0  0  0  0  0  0  0  0  0  0
   49.8509   55.6262   34.4521 C   0  0  0  0  0  0  0  0  0  0  0  0
   49.1577   56.6895   33.7284 N   0  0  0  0  0  0  0  0  0  0  0  0
   47.7891   56.7151   33.6899 C   0  0  0  0  0  0  0  0  0  0  0  0
   47.0581   55.7078   34.3495 C   0  0  0  0  0  0  0  0  0  0  0  0
   47.7496   54.6480   35.0700 C   0  0  0  0  0  0  0  0  0  0  0  0
   46.9918   53.6012   35.7566 N   0  0  0  0  0  0  0  0  0  0  0  0
   45.6544   55.9728   34.1487 N   0  0  0  0  0  0  0  0  0  0  0  0
   45.5449   57.1438   33.3624 C   0  0  0  0  0  0  0  0  0  0  0  0
   46.8557   57.6194   33.0698 N   0  0  0  0  0  0  0  0  0  0  0  0
  2  1  1  1  0  0  0
  2  3  1  0  0  0  0
  2  5  1  0  0  0  0
  3  4  1  0  0  0  0
  3 17  1  0  0  0  0
  5  6  1  0  0  0  0
  7  6  1  6  0  0  0
  7  8  1  0  0  0  0
  7  9  1  0  0  0  0
 10  9  1  6  0  0  0
 10 11  1  0  0  0  0
 10 12  1  0  0  0  0
 11 16  1  0  0  0  0
 12 13  1  6  0  0  0
 12 14  1  0  0  0  0
 14 15  1  6  0  0  0
 14 16  1  0  0  0  0
 16 27  1  6  0  0  0
 18 19  2  0  0  0  0
 18 23  1  0  0  0  0
 19 20  1  0  0  0  0
 20 21  2  0  0  0  0
 21 22  1  0  0  0  0
 21 27  1  0  0  0  0
 22 23  2  0  0  0  0
 22 25  1  0  0  0  0
 23 24  1  0  0  0  0
 25 26  2  0  0  0  0
 26 27  1  0  0  0  0
M  END
>  <CHROM.1>
125.93831063,-178.98870924,175.68473699,-57.09809770,-83.69707150,-80.93586850
157.07478903,47.44050213,56.74107042,30.65772927,-1.70066644,-1.25354381
1.44301872

>  <Name>
ligand

>  <RI>
0

>  <Rbt.Current_Directory>
/home/itssahil/PROJECTS/Mol_Feturizer/New_Systems/rnas/3GX2

>  <Rbt.Executable>
rbdock ($Id: //depot/dev/client3/rdock/2013.1/src/exe/rbdock.cxx#4 $)

>  <Rbt.Library>
libRbt.so (2013.1, Build901 2013/11/27)

>  <Rbt.Parameter_File>
/export/apps/rDock/src/rDock_2013.1_src/data/scripts/dock_solv.prm

>  <Rbt.Receptor>
prm/pocket_docking_4.prm

>  <SCORE>
-10.8544

>  <SCORE.INTER>
-8.16199

>  <SCORE.INTER.CONST>
1

>  <SCORE.INTER.POLAR>
0

>  <SCORE.INTER.ROT>
7

>  <SCORE.INTER.SOLV>
17.7062

>  <SCORE.INTER.VDW>
-19.6101

>  <SCORE.INTER.norm>
-0.302296

>  <SCORE.INTRA>
-2.69238

>  <SCORE.INTRA.DIHEDRAL>
-5.76215

>  <SCORE.INTRA.DIHEDRAL.0>
13.9704

>  <SCORE.INTRA.POLAR>
0

>  <SCORE.INTRA.POLAR.0>
0

>  <SCORE.INTRA.REPUL>
0

>  <SCORE.INTRA.REPUL.0>
0

>  <SCORE.INTRA.SOLV>
0.0953382

>  <SCORE.INTRA.SOLV.lig_0>
-70.9758

>  <SCORE.INTRA.VDW>
0.141025

>  <SCORE.INTRA.VDW.0>
-2.70686

>  <SCORE.INTRA.norm>
-0.0997177

>  <SCORE.RESTR>
0

>  <SCORE.RESTR.CAVITY>
0

>  <SCORE.RESTR.norm>
0

>  <SCORE.SYSTEM>
0

>  <SCORE.SYSTEM.CONST>
0

>  <SCORE.SYSTEM.DIHEDRAL>
0

>  <SCORE.SYSTEM.SOLV>
0

>  <SCORE.SYSTEM.norm>
0

>  <SCORE.heavy>
27

>  <SCORE.norm>
-0.402014

>  <RMSD>
5.176

$$$$
ligand
 OpenBabel11021811473D
libRbt.so/2013.1/901 2013/11/27
 27 29  0  0  0  0  0  0  0  0999 V2000
   50.1464   54.1147   30.6480 N   0  0  0  0  0  0  0  0  0  0  0  0
   49.6509   54.6277   29.3727 C   0  0  2  0  0  0  0  0  0  0  0  0
   49.4677   53.5532   28.2989 C   0  0  0  0  0  0  0  0  0  0  0  0
   50.3179   52.7384   28.1572 O   0  0  0  0  0  0  0  0  0  0  0  0
   50.3894   55.8786   28.8523 C   0  0  0  0  0  0  0  0  0  0  0  0
   49.7347   56.7443   27.7400 C   0  0  0  0  0  0  0  0  0  0  0  0
   48.3976   57.4332   28.1218 C   0  0  2  0  0  0  0  0  0  0  0  0
   47.6890   57.9815   26.9654 N   0  0  0  0  0  0  0  0  0  0  0  0
   48.5761   58.4661   29.2771 C   0  0  0  0  0  0  0  0  0  0  0  0
   47.3005   58.9725   30.0313 C   0  0  1  0  0  0  0  0  0  0  0  0
   46.2670   58.0125   30.4020 O   0  0  0  0  0  0  0  0  0  0  0  0
   47.5335   59.8103   31.3196 C   0  0  1  0  0  0  0  0  0  0  0  0
   48.1448   61.0993   31.1782 O   0  0  0  0  0  0  0  0  0  0  0  0
   46.2109   59.6795   32.1367 C   0  0  1  0  0  0  0  0  0  0  0  0
   45.3869   60.8152   32.2475 O   0  0  0  0  0  0  0  0  0  0  0  0
   45.6083   58.3782   31.5979 C   0  0  2  0  0  0  0  0  0  0  0  0
   48.1609   53.2571   27.8624 O   0  0  0  0  0  0  0  0  0  0  0  0
   48.6454   55.6210   35.1561 N   0  0  0  0  0  0  0  0  0  0  0  0
   49.0435   56.6903   34.3456 C   0  0  0  0  0  0  0  0  0  0  0  0
   48.0848   57.3174   33.4387 N   0  0  0  0  0  0  0  0  0  0  0  0
   46.7947   56.8618   33.3808 C   0  0  0  0  0  0  0  0  0  0  0  0
   46.4028   55.7839   34.1985 C   0  0  0  0  0  0  0  0  0  0  0  0
   47.3591   55.1589   35.1016 C   0  0  0  0  0  0  0  0  0  0  0  0
   46.9535   54.0397   35.9525 N   0  0  0  0  0  0  0  0  0  0  0  0
   45.0103   55.5114   33.9384 N   0  0  0  0  0  0  0  0  0  0  0  0
   44.5672   56.4297   32.9577 C   0  0  0  0  0  0  0  0  0  0  0  0
   45.6570   57.2754   32.6011 N   0  0  0  0  0  0  0  0  0  0  0  0
  2  1  1  1  0  0  0
  2  3  1  0  0  0  0
  2  5  1  0  0  0  0
  3  4  1  0  0  0  0
  3 17  1  0  0  0  0
  5  6  1  0  0  0  0
  7  6  1  6  0  0  0
  7  8  1  0  0  0  0
  7  9  1  0  0  0  0
 10  9  1  1  0  0  0
 10 11  1  0  0  0  0
 10 12  1  0  0  0  0
 11 16  1  0  0  0  0
 12 13  1  6  0  0  0
 12 14  1  0  0  0  0
 14 15  1  6  0  0  0
 14 16  1  0  0  0  0
 16 27  1  1  0  0  0
 18 19  2  0  0  0  0
 18 23  1  0  0  0  0
 19 20  1  0  0  0  0
 20 21  2  0  0  0  0
 21 22  1  0  0  0  0
 21 27  1  0  0  0  0
 22 23  2  0  0  0  0
 22 25  1  0  0  0  0
 23 24  1  0  0  0  0
 25 26  2  0  0  0  0
 26 27  1  0  0  0  0
M  END
>  <CHROM.1>
-44.11784470,-163.29583930,63.60452704,-167.34051244,-164.39690572,43.01598995
74.18172737,47.70662429,56.76310772,31.22004120,-0.31352756,-1.07780782,2.35143996

>  <Name>
ligand

>  <RI>
0

>  <Rbt.Current_Directory>
/home/itssahil/PROJECTS/Mol_Feturizer/New_Systems/rnas/3GX2

>  <Rbt.Executable>
rbdock ($Id: //depot/dev/client3/rdock/2013.1/src/exe/rbdock.cxx#4 $)

>  <Rbt.Library>
libRbt.so (2013.1, Build901 2013/11/27)

>  <Rbt.Parameter_File>
/export/apps/rDock/src/rDock_2013.1_src/data/scripts/dock_solv.prm

>  <Rbt.Receptor>
prm/pocket_docking_4.prm

>  <SCORE>
-12.7002

>  <SCORE.INTER>
-9.46295

>  <SCORE.INTER.CONST>
1

>  <SCORE.INTER.POLAR>
0

>  <SCORE.INTER.ROT>
7

>  <SCORE.INTER.SOLV>
17.982

>  <SCORE.INTER.VDW>
-20.5693

>  <SCORE.INTER.norm>
-0.350479

>  <SCORE.INTRA>
-3.23724

>  <SCORE.INTRA.DIHEDRAL>
-6.33866

>  <SCORE.INTRA.DIHEDRAL.0>
13.9704

>  <SCORE.INTRA.POLAR>
0

>  <SCORE.INTRA.POLAR.0>
0

>  <SCORE.INTRA.REPUL>
0

>  <SCORE.INTRA.REPUL.0>
0

>  <SCORE.INTRA.SOLV>
0.127084

>  <SCORE.INTRA.SOLV.lig_0>
-70.9758

>  <SCORE.INTRA.VDW>
-0.13145

>  <SCORE.INTRA.VDW.0>
-2.70686

>  <SCORE.INTRA.norm>
-0.119898

>  <SCORE.RESTR>
0

>  <SCORE.RESTR.CAVITY>
0

>  <SCORE.RESTR.norm>
0

>  <SCORE.SYSTEM>
0

>  <SCORE.SYSTEM.CONST>
0

>  <SCORE.SYSTEM.DIHEDRAL>
0

>  <SCORE.SYSTEM.SOLV>
0

>  <SCORE.SYSTEM.norm>
0

>  <SCORE.heavy>
27

>  <SCORE.norm>
-0.470377

>  <RMSD>
5.180

$$$$
ligand
 OpenBabel11021811473D
libRbt.so/2013.1/901 2013/11/27
 27 29  0  0  0  0  0  0  0  0999 V2000
   47.8420   52.7665   29.1190 N   0  0  0  0  0  0  0  0  0  0  0  0
   47.2901   54.1176   29.1890 C   0  0  2  0  0  0  0  0  0  0  0  0
   46.9834   54.5915   30.6112 C   0  0  0  0  0  0  0  0  0  0  0  0
   47.6614   55.4401   31.0877 O   0  0  0  0  0  0  0  0  0  0  0  0
   46.1372   54.3933   28.2012 C   0  0  0  0  0  0  0  0  0  0  0  0
   45.6300   55.8494   28.0066 C   0  0  0  0  0  0  0  0  0  0  0  0
   46.6781   56.8624   27.4741 C   0  0  2  0  0  0  0  0  0  0  0  0
   47.3831   56.3807   26.2862 N   0  0  0  0  0  0  0  0  0  0  0  0
   47.6394   57.3604   28.5971 C   0  0  0  0  0  0  0  0  0  0  0  0
   47.0573   58.2709   29.7304 C   0  0  1  0  0  0  0  0  0  0  0  0
   45.8993   57.8092   30.4875 O   0  0  0  0  0  0  0  0  0  0  0  0
   48.0558   58.7695   30.8122 C   0  0  1  0  0  0  0  0  0  0  0  0
   49.0855   59.6795   30.4039 O   0  0  0  0  0  0  0  0  0  0  0  0
   47.1744   59.1217   32.0505 C   0  0  1  0  0  0  0  0  0  0  0  0
   47.0285   60.4788   32.3938 O   0  0  0  0  0  0  0  0  0  0  0  0
   45.9170   58.2773   31.8210 C   0  0  2  0  0  0  0  0  0  0  0  0
   45.6841   54.3923   31.1190 O   0  0  0  0  0  0  0  0  0  0  0  0
   48.5027   55.1181   35.4016 N   0  0  0  0  0  0  0  0  0  0  0  0
   49.0434   56.1595   34.6389 C   0  0  0  0  0  0  0  0  0  0  0  0
   48.1928   56.9093   33.7172 N   0  0  0  0  0  0  0  0  0  0  0  0
   46.8650   56.5962   33.5990 C   0  0  0  0  0  0  0  0  0  0  0  0
   46.3292   55.5455   34.3689 C   0  0  0  0  0  0  0  0  0  0  0  0
   47.1777   54.7982   35.2866 C   0  0  0  0  0  0  0  0  0  0  0  0
   46.6227   53.7068   36.0881 N   0  0  0  0  0  0  0  0  0  0  0  0
   44.9269   55.4307   34.0506 N   0  0  0  0  0  0  0  0  0  0  0  0
   44.6226   56.4166   33.0827 C   0  0  0  0  0  0  0  0  0  0  0  0
   45.8090   57.1498   32.7915 N   0  0  0  0  0  0  0  0  0  0  0  0
  2  1  1  1  0  0  0
  2  3  1  0  0  0  0
  2  5  1  0  0  0  0
  3  4  1  0  0  0  0
  3 17  1  0  0  0  0
  5  6  1  0  0  0  0
  7  6  1  1  0  0  0
  7  8  1  0  0  0  0
  7  9  1  0  0  0  0
 10  9  1  1  0  0  0
 10 11  1  0  0  0  0
 10 12  1  0  0  0  0
 11 16  1  0  0  0  0
 12 13  1  6  0  0  0
 12 14  1  0  0  0  0
 14 15  1  6  0  0  0
 14 16  1  0  0  0  0
 16 27  1  1  0  0  0
 18 19  2  0  0  0  0
 18 23  1  0  0  0  0
 19 20  1  0  0  0  0
 20 21  2  0  0  0  0
 21 22  1  0  0  0  0
 21 27  1  0  0  0  0
 22 23  2  0  0  0  0
 22 25  1  0  0  0  0
 23 24  1  0  0  0  0
 25 26  2  0  0  0  0
 26 27  1  0  0  0  0
M  END
>  <CHROM.1>
109.66510774,-169.66209454,60.89757156,50.02528884,-68.34818204,54.18558333
104.99680931,46.94015267,56.41512939,31.43652320,1.57396212,-1.42659492,-1.45413915

>  <Name>
ligand

>  <RI>
0

>  <Rbt.Current_Directory>
/home/itssahil/PROJECTS/Mol_Feturizer/New_Systems/rnas/3GX2

>  <Rbt.Executable>
rbdock ($Id: //depot/dev/client3/rdock/2013.1/src/exe/rbdock.cxx#4 $)

>  <Rbt.Library>
libRbt.so (2013.1, Build901 2013/11/27)

>  <Rbt.Parameter_File>
/export/apps/rDock/src/rDock_2013.1_src/data/scripts/dock_solv.prm

>  <Rbt.Receptor>
prm/pocket_docking_4.prm

>  <SCORE>
-9.5816

>  <SCORE.INTER>
-3.99216

>  <SCORE.INTER.CONST>
1

>  <SCORE.INTER.POLAR>
0

>  <SCORE.INTER.ROT>
7

>  <SCORE.INTER.SOLV>
13.4311

>  <SCORE.INTER.VDW>
-15.4051

>  <SCORE.INTER.norm>
-0.147858

>  <SCORE.INTRA>
-5.58944

>  <SCORE.INTRA.DIHEDRAL>
-8.29572

>  <SCORE.INTRA.DIHEDRAL.0>
13.9704

>  <SCORE.INTRA.POLAR>
0

>  <SCORE.INTRA.POLAR.0>
0

>  <SCORE.INTRA.REPUL>
0

>  <SCORE.INTRA.REPUL.0>
0

>  <SCORE.INTRA.SOLV>
2.62467

>  <SCORE.INTRA.SOLV.lig_0>
-70.9758

>  <SCORE.INTRA.VDW>
-2.75392

>  <SCORE.INTRA.VDW.0>
-2.70686

>  <SCORE.INTRA.norm>
-0.207016

>  <SCORE.RESTR>
0

>  <SCORE.RESTR.CAVITY>
0

>  <SCORE.RESTR.norm>
0

>  <SCORE.SYSTEM>
0

>  <SCORE.SYSTEM.CONST>
0

>  <SCORE.SYSTEM.DIHEDRAL>
0

>  <SCORE.SYSTEM.SOLV>
0

>  <SCORE.SYSTEM.norm>
0

>  <SCORE.heavy>
27

>  <SCORE.norm>
-0.354874

>  <RMSD>
5.183

$$$$
ligand
 OpenBabel11021811483D
libRbt.so/2013.1/901 2013/11/27
 27 29  0  0  0  0  0  0  0  0999 V2000
   49.0252   57.7692   30.7725 N   0  0  0  0  0  0  0  0  0  0  0  0
   48.1044   58.4669   31.6672 C   0  0  2  0  0  0  0  0  0  0  0  0
   48.6000   59.8414   32.1215 C   0  0  0  0  0  0  0  0  0  0  0  0
   49.7317   59.9566   32.4576 O   0  0  0  0  0  0  0  0  0  0  0  0
   47.5627   57.6084   32.8294 C   0  0  0  0  0  0  0  0  0  0  0  0
   48.5177   57.1961   33.9840 C   0  0  0  0  0  0  0  0  0  0  0  0
   49.3561   55.9132   33.7393 C   0  0  2  0  0  0  0  0  0  0  0  0
   50.2326   56.0198   32.5729 N   0  0  0  0  0  0  0  0  0  0  0  0
   48.4741   54.6267   33.7271 C   0  0  0  0  0  0  0  0  0  0  0  0
   47.3626   54.4716   34.8193 C   0  0  1  0  0  0  0  0  0  0  0  0
   46.1766   55.3177   34.7504 O   0  0  0  0  0  0  0  0  0  0  0  0
   46.8058   53.0398   35.0554 C   0  0  1  0  0  0  0  0  0  0  0  0
   47.6941   52.0587   35.6063 O   0  0  0  0  0  0  0  0  0  0  0  0
   45.4033   53.2490   35.7061 C   0  0  1  0  0  0  0  0  0  0  0  0
   45.2449   52.9038   37.0614 O   0  0  0  0  0  0  0  0  0  0  0  0
   45.0292   54.6642   35.2546 C   0  0  2  0  0  0  0  0  0  0  0  0
   47.8983   60.9842   31.6886 O   0  0  0  0  0  0  0  0  0  0  0  0
   43.0222   56.8764   30.7197 N   0  0  0  0  0  0  0  0  0  0  0  0
   44.2103   57.2139   31.3780 C   0  0  0  0  0  0  0  0  0  0  0  0
   44.5971   56.5078   32.5973 N   0  0  0  0  0  0  0  0  0  0  0  0
   43.7996   55.5134   33.0976 C   0  0  0  0  0  0  0  0  0  0  0  0
   42.6046   55.1812   32.4300 C   0  0  0  0  0  0  0  0  0  0  0  0
   42.2194   55.8859   31.2153 C   0  0  0  0  0  0  0  0  0  0  0  0
   40.9788   55.5416   30.5197 N   0  0  0  0  0  0  0  0  0  0  0  0
   41.9662   54.1158   33.1637 N   0  0  0  0  0  0  0  0  0  0  0  0
   42.7825   53.8107   34.2782 C   0  0  0  0  0  0  0  0  0  0  0  0
   43.9233   54.6639   34.2537 N   0  0  0  0  0  0  0  0  0  0  0  0
  2  1  1  1  0  0  0
  2  3  1  0  0  0  0
  2  5  1  0  0  0  0
  3  4  1  0  0  0  0
  3 17  1  0  0  0  0
  5  6  1  0  0  0  0
  7  6  1  6  0  0  0
  7  8  1  0  0  0  0
  7  9  1  0  0  0  0
 10  9  1  6  0  0  0
 10 11  1  0  0  0  0
 10 12  1  0  0  0  0
 11 16  1  0  0  0  0
 12 13  1  1  0  0  0
 12 14  1  0  0  0  0
 14 15  1  1  0  0  0
 14 16  1  0  0  0  0
 16 27  1  6  0  0  0
 18 19  2  0  0  0  0
 18 23  1  0  0  0  0
 19 20  1  0  0  0  0
 20 21  2  0  0  0  0
 21 22  1  0  0  0  0
 21 27  1  0  0  0  0
 22 23  2  0  0  0  0
 22 25  1  0  0  0  0
 23 24  1  0  0  0  0
 25 26  2  0  0  0  0
 26 27  1  0  0  0  0
M  END
>  <CHROM.1>
-43.97153197,70.53750957,-85.47922704,60.19888269,-43.32551589,70.92786616
-17.92675098,46.06531205,55.92760369,33.27365595,0.69722856,-0.27250969,-0.66711665

>  <Name>
ligand

>  <RI>
0

>  <Rbt.Current_Directory>
/home/itssahil/PROJECTS/Mol_Feturizer/New_Systems/rnas/3GX2

>  <Rbt.Executable>
rbdock ($Id: //depot/dev/client3/rdock/2013.1/src/exe/rbdock.cxx#4 $)

>  <Rbt.Library>
libRbt.so (2013.1, Build901 2013/11/27)

>  <Rbt.Parameter_File>
/export/apps/rDock/src/rDock_2013.1_src/data/scripts/dock_solv.prm

>  <Rbt.Receptor>
prm/pocket_docking_8.prm

>  <SCORE>
-10.1392

>  <SCORE.INTER>
-9.54464

>  <SCORE.INTER.CONST>
1

>  <SCORE.INTER.POLAR>
0

>  <SCORE.INTER.ROT>
7

>  <SCORE.INTER.SOLV>
19.1555

>  <SCORE.INTER.VDW>
-21.0149

>  <SCORE.INTER.norm>
-0.353505

>  <SCORE.INTRA>
-0.594596

>  <SCORE.INTRA.DIHEDRAL>
-5.4543

>  <SCORE.INTRA.DIHEDRAL.0>
13.9704

>  <SCORE.INTRA.POLAR>
0

>  <SCORE.INTRA.POLAR.0>
0

>  <SCORE.INTRA.REPUL>
0

>  <SCORE.INTRA.REPUL.0>
0

>  <SCORE.INTRA.SOLV>
4.55769

>  <SCORE.INTRA.SOLV.lig_0>
-70.9758

>  <SCORE.INTRA.VDW>
-0.146295

>  <SCORE.INTRA.VDW.0>
-2.70686

>  <SCORE.INTRA.norm>
-0.0220221

>  <SCORE.RESTR>
0

>  <SCORE.RESTR.CAVITY>
0

>  <SCORE.RESTR.norm>
0

>  <SCORE.SYSTEM>
0

>  <SCORE.SYSTEM.CONST>
0

>  <SCORE.SYSTEM.DIHEDRAL>
0

>  <SCORE.SYSTEM.SOLV>
0

>  <SCORE.SYSTEM.norm>
0

>  <SCORE.heavy>
27

>  <SCORE.norm>
-0.375527

>  <RMSD>
5.193

$$$$
ligand
 OpenBabel11021811473D
libRbt.so/2013.1/901 2013/11/27
 27 29  0  0  0  0  0  0  0  0999 V2000
   49.0515   52.3092   29.6528 N   0  0  0  0  0  0  0  0  0  0  0  0
   49.0268   53.7688   29.5891 C   0  0  2  0  0  0  0  0  0  0  0  0
   49.5202   54.4556   30.8643 C   0  0  0  0  0  0  0  0  0  0  0  0
   50.2310   55.3999   30.7643 O   0  0  0  0  0  0  0  0  0  0  0  0
   47.7084   54.3669   29.0550 C   0  0  0  0  0  0  0  0  0  0  0  0
   47.6295   55.8881   28.7471 C   0  0  0  0  0  0  0  0  0  0  0  0
   46.2255   56.4256   28.3621 C   0  0  2  0  0  0  0  0  0  0  0  0
   45.6879   55.7999   27.1540 N   0  0  0  0  0  0  0  0  0  0  0  0
   46.1841   57.9842   28.3150 C   0  0  0  0  0  0  0  0  0  0  0  0
   46.5575   58.7818   29.6099 C   0  0  1  0  0  0  0  0  0  0  0  0
   45.7118   58.6535   30.7913 O   0  0  0  0  0  0  0  0  0  0  0  0
   48.0056   58.6088   30.1475 C   0  0  1  0  0  0  0  0  0  0  0  0
   49.0817   59.1136   29.3460 O   0  0  0  0  0  0  0  0  0  0  0  0
   47.9307   58.9993   31.6561 C   0  0  1  0  0  0  0  0  0  0  0  0
   48.5470   60.1984   32.0603 O   0  0  0  0  0  0  0  0  0  0  0  0
   46.4517   58.7790   31.9890 C   0  0  2  0  0  0  0  0  0  0  0  0
   48.7759   54.2857   32.0487 O   0  0  0  0  0  0  0  0  0  0  0  0
   48.7549   55.1064   35.2592 N   0  0  0  0  0  0  0  0  0  0  0  0
   49.3892   56.1373   34.5565 C   0  0  0  0  0  0  0  0  0  0  0  0
   48.6056   57.0396   33.7158 N   0  0  0  0  0  0  0  0  0  0  0  0
   47.2493   56.8799   33.6147 C   0  0  0  0  0  0  0  0  0  0  0  0
   46.6191   55.8386   34.3236 C   0  0  0  0  0  0  0  0  0  0  0  0
   47.4008   54.9393   35.1607 C   0  0  0  0  0  0  0  0  0  0  0  0
   46.7477   53.8575   35.8988 N   0  0  0  0  0  0  0  0  0  0  0  0
   45.2061   55.8982   34.0392 N   0  0  0  0  0  0  0  0  0  0  0  0
   44.9900   56.9796   33.1530 C   0  0  0  0  0  0  0  0  0  0  0  0
   46.2427   57.6011   32.8798 N   0  0  0  0  0  0  0  0  0  0  0  0
  2  1  1  1  0  0  0
  2  3  1  0  0  0  0
  2  5  1  0  0  0  0
  3  4  1  0  0  0  0
  3 17  1  0  0  0  0
  5  6  1  0  0  0  0
  7  6  1  6  0  0  0
  7  8  1  0  0  0  0
  7  9  1  0  0  0  0
 10  9  1  6  0  0  0
 10 11  1  0  0  0  0
 10 12  1  0  0  0  0
 11 16  1  0  0  0  0
 12 13  1  6  0  0  0
 12 14  1  0  0  0  0
 14 15  1  6  0  0  0
 14 16  1  0  0  0  0
 16 27  1  1  0  0  0
 18 19  2  0  0  0  0
 18 23  1  0  0  0  0
 19 20  1  0  0  0  0
 20 21  2  0  0  0  0
 21 22  1  0  0  0  0
 21 27  1  0  0  0  0
 22 23  2  0  0  0  0
 22 25  1  0  0  0  0
 23 24  1  0  0  0  0
 25 26  2  0  0  0  0
 26 27  1  0  0  0  0
M  END
>  <CHROM.1>
137.78355894,-171.25540126,-173.63568862,-60.76343283,-58.52813571,-64.58189541
136.04355583,47.57160923,56.47239107,31.52170101,-1.74839966,-1.22770953
1.69979136

>  <Name>
ligand

>  <RI>
0

>  <Rbt.Current_Directory>
/home/itssahil/PROJECTS/Mol_Feturizer/New_Systems/rnas/3GX2

>  <Rbt.Executable>
rbdock ($Id: //depot/dev/client3/rdock/2013.1/src/exe/rbdock.cxx#4 $)

>  <Rbt.Library>
libRbt.so (2013.1, Build901 2013/11/27)

>  <Rbt.Parameter_File>
/export/apps/rDock/src/rDock_2013.1_src/data/scripts/dock_solv.prm

>  <Rbt.Receptor>
prm/pocket_docking_5.prm

>  <SCORE>
-10.6961

>  <SCORE.INTER>
-5.70103

>  <SCORE.INTER.CONST>
1

>  <SCORE.INTER.POLAR>
0

>  <SCORE.INTER.ROT>
7

>  <SCORE.INTER.SOLV>
17.1527

>  <SCORE.INTER.VDW>
-17.7849

>  <SCORE.INTER.norm>
-0.211149

>  <SCORE.INTRA>
-4.99503

>  <SCORE.INTRA.DIHEDRAL>
-8.58712

>  <SCORE.INTRA.DIHEDRAL.0>
13.9704

>  <SCORE.INTRA.POLAR>
0

>  <SCORE.INTRA.POLAR.0>
0

>  <SCORE.INTRA.REPUL>
0

>  <SCORE.INTRA.REPUL.0>
0

>  <SCORE.INTRA.SOLV>
0.465315

>  <SCORE.INTRA.SOLV.lig_0>
-70.9758

>  <SCORE.INTRA.VDW>
-0.934126

>  <SCORE.INTRA.VDW.0>
-2.70686

>  <SCORE.INTRA.norm>
-0.185001

>  <SCORE.RESTR>
0

>  <SCORE.RESTR.CAVITY>
0

>  <SCORE.RESTR.norm>
0

>  <SCORE.SYSTEM>
0

>  <SCORE.SYSTEM.CONST>
0

>  <SCORE.SYSTEM.DIHEDRAL>
0

>  <SCORE.SYSTEM.SOLV>
0

>  <SCORE.SYSTEM.norm>
0

>  <SCORE.heavy>
27

>  <SCORE.norm>
-0.39615

>  <RMSD>
5.198

$$$$
ligand
 OpenBabel11021811473D
libRbt.so/2013.1/901 2013/11/27
 27 29  0  0  0  0  0  0  0  0999 V2000
   49.7174   54.6006   30.5085 N   0  0  0  0  0  0  0  0  0  0  0  0
   48.4288   54.0734   30.0650 C   0  0  2  0  0  0  0  0  0  0  0  0
   48.5387   52.8694   29.1272 C   0  0  0  0  0  0  0  0  0  0  0  0
   49.4293   52.8362   28.3445 O   0  0  0  0  0  0  0  0  0  0  0  0
   47.4367   55.1415   29.5591 C   0  0  0  0  0  0  0  0  0  0  0  0
   47.8412   56.0574   28.3705 C   0  0  0  0  0  0  0  0  0  0  0  0
   48.7046   57.2940   28.7363 C   0  0  2  0  0  0  0  0  0  0  0  0
   49.4569   57.1159   29.9782 N   0  0  0  0  0  0  0  0  0  0  0  0
   47.8805   58.6180   28.7038 C   0  0  0  0  0  0  0  0  0  0  0  0
   46.7286   58.8078   29.7476 C   0  0  1  0  0  0  0  0  0  0  0  0
   46.0235   57.6333   30.2481 O   0  0  0  0  0  0  0  0  0  0  0  0
   47.0650   59.6320   31.0217 C   0  0  1  0  0  0  0  0  0  0  0  0
   47.3511   61.0274   30.8600 O   0  0  0  0  0  0  0  0  0  0  0  0
   46.0133   59.1878   32.0851 C   0  0  1  0  0  0  0  0  0  0  0  0
   45.0193   60.1117   32.4581 O   0  0  0  0  0  0  0  0  0  0  0  0
   45.5867   57.8055   31.5812 C   0  0  2  0  0  0  0  0  0  0  0  0
   47.9252   51.6607   29.5126 O   0  0  0  0  0  0  0  0  0  0  0  0
   49.4175   56.1689   35.0646 N   0  0  0  0  0  0  0  0  0  0  0  0
   49.3318   57.4040   34.4120 C   0  0  0  0  0  0  0  0  0  0  0  0
   48.2224   57.6742   33.5002 N   0  0  0  0  0  0  0  0  0  0  0  0
   47.2636   56.7209   33.2834 C   0  0  0  0  0  0  0  0  0  0  0  0
   47.3585   55.4798   33.9428 C   0  0  0  0  0  0  0  0  0  0  0  0
   48.4647   55.2109   34.8508 C   0  0  0  0  0  0  0  0  0  0  0  0
   48.5645   53.9225   35.5374 N   0  0  0  0  0  0  0  0  0  0  0  0
   46.2335   54.6731   33.5369 N   0  0  0  0  0  0  0  0  0  0  0  0
   45.4626   55.4349   32.6276 C   0  0  0  0  0  0  0  0  0  0  0  0
   46.0830   56.7065   32.4592 N   0  0  0  0  0  0  0  0  0  0  0  0
  2  1  1  6  0  0  0
  2  3  1  0  0  0  0
  2  5  1  0  0  0  0
  3  4  1  0  0  0  0
  3 17  1  0  0  0  0
  5  6  1  0  0  0  0
  7  6  1  1  0  0  0
  7  8  1  0  0  0  0
  7  9  1  0  0  0  0
 10  9  1  1  0  0  0
 10 11  1  0  0  0  0
 10 12  1  0  0  0  0
 11 16  1  0  0  0  0
 12 13  1  6  0  0  0
 12 14  1  0  0  0  0
 14 15  1  6  0  0  0
 14 16  1  0  0  0  0
 16 27  1  1  0  0  0
 18 19  2  0  0  0  0
 18 23  1  0  0  0  0
 19 20  1  0  0  0  0
 20 21  2  0  0  0  0
 21 22  1  0  0  0  0
 21 27  1  0  0  0  0
 22 23  2  0  0  0  0
 22 25  1  0  0  0  0
 23 24  1  0  0  0  0
 25 26  2  0  0  0  0
 26 27  1  0  0  0  0
M  END
>  <CHROM.1>
-36.13902161,58.40501769,-82.91797578,24.32189099,65.61628386,-29.53289935
95.34858245,47.60741528,56.44359288,31.41190563,0.16145964,1.25202000,-1.41335084

>  <Name>
ligand

>  <RI>
0

>  <Rbt.Current_Directory>
/home/itssahil/PROJECTS/Mol_Feturizer/New_Systems/rnas/3GX2

>  <Rbt.Executable>
rbdock ($Id: //depot/dev/client3/rdock/2013.1/src/exe/rbdock.cxx#4 $)

>  <Rbt.Library>
libRbt.so (2013.1, Build901 2013/11/27)

>  <Rbt.Parameter_File>
/export/apps/rDock/src/rDock_2013.1_src/data/scripts/dock_solv.prm

>  <Rbt.Receptor>
prm/pocket_docking_2.prm

>  <SCORE>
-2.71945

>  <SCORE.INTER>
-5.4066

>  <SCORE.INTER.CONST>
1

>  <SCORE.INTER.POLAR>
0

>  <SCORE.INTER.ROT>
7

>  <SCORE.INTER.SOLV>
13.9759

>  <SCORE.INTER.VDW>
-16.5297

>  <SCORE.INTER.norm>
-0.200244

>  <SCORE.INTRA>
1.51799

>  <SCORE.INTRA.DIHEDRAL>
-1.00771

>  <SCORE.INTRA.DIHEDRAL.0>
13.9704

>  <SCORE.INTRA.POLAR>
0

>  <SCORE.INTRA.POLAR.0>
0

>  <SCORE.INTRA.REPUL>
0

>  <SCORE.INTRA.REPUL.0>
0

>  <SCORE.INTRA.SOLV>
6.45698

>  <SCORE.INTRA.SOLV.lig_0>
-70.9758

>  <SCORE.INTRA.VDW>
-1.20664

>  <SCORE.INTRA.VDW.0>
-2.70686

>  <SCORE.INTRA.norm>
0.0562218

>  <SCORE.RESTR>
1.16917

>  <SCORE.RESTR.CAVITY>
1.16917

>  <SCORE.RESTR.norm>
0.0433024

>  <SCORE.SYSTEM>
0

>  <SCORE.SYSTEM.CONST>
0

>  <SCORE.SYSTEM.DIHEDRAL>
0

>  <SCORE.SYSTEM.SOLV>
0

>  <SCORE.SYSTEM.norm>
0

>  <SCORE.heavy>
27

>  <SCORE.norm>
-0.10072

>  <RMSD>
5.203

$$$$
ligand
 OpenBabel11021811473D
libRbt.so/2013.1/901 2013/11/27
 27 29  0  0  0  0  0  0  0  0999 V2000
   47.7444   54.5351   24.8185 N   0  0  0  0  0  0  0  0  0  0  0  0
   47.9914   54.7213   26.2466 C   0  0  2  0  0  0  0  0  0  0  0  0
   48.2211   53.4172   27.0134 C   0  0  0  0  0  0  0  0  0  0  0  0
   47.4360   52.5370   26.8887 O   0  0  0  0  0  0  0  0  0  0  0  0
   46.9982   55.6676   26.9529 C   0  0  0  0  0  0  0  0  0  0  0  0
   47.4314   56.3947   28.2564 C   0  0  0  0  0  0  0  0  0  0  0  0
   48.4612   57.5418   28.0775 C   0  0  2  0  0  0  0  0  0  0  0  0
   49.7620   57.0703   27.6025 N   0  0  0  0  0  0  0  0  0  0  0  0
   48.5627   58.4451   29.3451 C   0  0  0  0  0  0  0  0  0  0  0  0
   47.2389   58.9006   30.0468 C   0  0  1  0  0  0  0  0  0  0  0  0
   46.2429   57.8967   30.4038 O   0  0  0  0  0  0  0  0  0  0  0  0
   47.3864   59.7738   31.3242 C   0  0  1  0  0  0  0  0  0  0  0  0
   47.9368   61.0891   31.1759 O   0  0  0  0  0  0  0  0  0  0  0  0
   46.0454   59.5918   32.1006 C   0  0  1  0  0  0  0  0  0  0  0  0
   45.1624   60.6861   32.1609 O   0  0  0  0  0  0  0  0  0  0  0  0
   45.5271   58.2515   31.5698 C   0  0  2  0  0  0  0  0  0  0  0  0
   49.5301   53.1080   27.4339 O   0  0  0  0  0  0  0  0  0  0  0  0
   48.6615   55.5128   35.0573 N   0  0  0  0  0  0  0  0  0  0  0  0
   49.0454   56.5535   34.2038 C   0  0  0  0  0  0  0  0  0  0  0  0
   48.0605   57.1799   33.3249 N   0  0  0  0  0  0  0  0  0  0  0  0
   46.7598   56.7519   33.3354 C   0  0  0  0  0  0  0  0  0  0  0  0
   46.3822   55.7027   34.1961 C   0  0  0  0  0  0  0  0  0  0  0  0
   47.3645   55.0783   35.0711 C   0  0  0  0  0  0  0  0  0  0  0  0
   46.9739   53.9889   35.9667 N   0  0  0  0  0  0  0  0  0  0  0  0
   44.9740   55.4551   34.0047 N   0  0  0  0  0  0  0  0  0  0  0  0
   44.5070   56.3595   33.0221 C   0  0  0  0  0  0  0  0  0  0  0  0
   45.5973   57.1721   32.5968 N   0  0  0  0  0  0  0  0  0  0  0  0
  2  1  1  6  0  0  0
  2  3  1  0  0  0  0
  2  5  1  0  0  0  0
  3  4  1  0  0  0  0
  3 17  1  0  0  0  0
  5  6  1  0  0  0  0
  7  6  1  1  0  0  0
  7  8  1  0  0  0  0
  7  9  1  0  0  0  0
 10  9  1  1  0  0  0
 10 11  1  0  0  0  0
 10 12  1  0  0  0  0
 11 16  1  0  0  0  0
 12 13  1  6  0  0  0
 12 14  1  0  0  0  0
 14 15  1  6  0  0  0
 14 16  1  0  0  0  0
 16 27  1  1  0  0  0
 18 19  2  0  0  0  0
 18 23  1  0  0  0  0
 19 20  1  0  0  0  0
 20 21  2  0  0  0  0
 21 22  1  0  0  0  0
 21 27  1  0  0  0  0
 22 23  2  0  0  0  0
 22 25  1  0  0  0  0
 23 24  1  0  0  0  0
 25 26  2  0  0  0  0
 26 27  1  0  0  0  0
M  END
>  <CHROM.1>
-50.97206937,-155.71563370,72.19920434,-65.49573319,-44.73968231,51.61453536
68.11170586,47.27143758,56.65485180,30.72965679,0.32902468,1.35399902,-0.67331743

>  <Name>
ligand

>  <RI>
0

>  <Rbt.Current_Directory>
/home/itssahil/PROJECTS/Mol_Feturizer/New_Systems/rnas/3GX2

>  <Rbt.Executable>
rbdock ($Id: //depot/dev/client3/rdock/2013.1/src/exe/rbdock.cxx#4 $)

>  <Rbt.Library>
libRbt.so (2013.1, Build901 2013/11/27)

>  <Rbt.Parameter_File>
/export/apps/rDock/src/rDock_2013.1_src/data/scripts/dock_solv.prm

>  <Rbt.Receptor>
prm/pocket_docking_7.prm

>  <SCORE>
-9.76698

>  <SCORE.INTER>
-7.54907

>  <SCORE.INTER.CONST>
1

>  <SCORE.INTER.POLAR>
0

>  <SCORE.INTER.ROT>
7

>  <SCORE.INTER.SOLV>
15.5621

>  <SCORE.INTER.VDW>
-18.4867

>  <SCORE.INTER.norm>
-0.279595

>  <SCORE.INTRA>
-2.21791

>  <SCORE.INTRA.DIHEDRAL>
-6.07704

>  <SCORE.INTRA.DIHEDRAL.0>
13.9704

>  <SCORE.INTRA.POLAR>
0

>  <SCORE.INTRA.POLAR.0>
0

>  <SCORE.INTRA.REPUL>
0

>  <SCORE.INTRA.REPUL.0>
0

>  <SCORE.INTRA.SOLV>
1.59085

>  <SCORE.INTRA.SOLV.lig_0>
-70.9758

>  <SCORE.INTRA.VDW>
0.0251782

>  <SCORE.INTRA.VDW.0>
-2.70686

>  <SCORE.INTRA.norm>
-0.082145

>  <SCORE.RESTR>
0

>  <SCORE.RESTR.CAVITY>
0

>  <SCORE.RESTR.norm>
0

>  <SCORE.SYSTEM>
0

>  <SCORE.SYSTEM.CONST>
0

>  <SCORE.SYSTEM.DIHEDRAL>
0

>  <SCORE.SYSTEM.SOLV>
0

>  <SCORE.SYSTEM.norm>
0

>  <SCORE.heavy>
27

>  <SCORE.norm>
-0.36174

>  <RMSD>
5.208

$$$$
ligand
 OpenBabel11021811473D
libRbt.so/2013.1/901 2013/11/27
 27 29  0  0  0  0  0  0  0  0999 V2000
   50.0798   54.8914   29.7423 N   0  0  0  0  0  0  0  0  0  0  0  0
   49.4688   53.8879   30.6112 C   0  0  2  0  0  0  0  0  0  0  0  0
   48.7725   52.7531   29.8572 C   0  0  0  0  0  0  0  0  0  0  0  0
   47.7666   52.3076   30.3005 O   0  0  0  0  0  0  0  0  0  0  0  0
   48.6102   54.4655   31.7559 C   0  0  0  0  0  0  0  0  0  0  0  0
   49.2477   55.4682   32.7575 C   0  0  0  0  0  0  0  0  0  0  0  0
   48.3332   55.9286   33.9239 C   0  0  2  0  0  0  0  0  0  0  0  0
   48.0487   54.8591   34.8805 N   0  0  0  0  0  0  0  0  0  0  0  0
   47.0488   56.6525   33.4146 C   0  0  0  0  0  0  0  0  0  0  0  0
   47.2106   57.9931   32.6215 C   0  0  1  0  0  0  0  0  0  0  0  0
   48.2409   58.0900   31.5938 O   0  0  0  0  0  0  0  0  0  0  0  0
   45.9335   58.5682   31.9475 C   0  0  1  0  0  0  0  0  0  0  0  0
   44.8753   59.0258   32.7996 O   0  0  0  0  0  0  0  0  0  0  0  0
   46.4559   59.5023   30.8124 C   0  0  1  0  0  0  0  0  0  0  0  0
   46.2913   60.8911   30.9705 O   0  0  0  0  0  0  0  0  0  0  0  0
   47.8585   58.9500   30.5393 C   0  0  2  0  0  0  0  0  0  0  0  0
   49.0371   52.6003   28.4815 O   0  0  0  0  0  0  0  0  0  0  0  0
   46.5018   54.5837   27.6097 N   0  0  0  0  0  0  0  0  0  0  0  0
   46.1739   54.8490   28.9442 C   0  0  0  0  0  0  0  0  0  0  0  0
   46.6283   56.0850   29.5773 N   0  0  0  0  0  0  0  0  0  0  0  0
   47.3740   56.9871   28.8665 C   0  0  0  0  0  0  0  0  0  0  0  0
   47.7012   56.7115   27.5244 C   0  0  0  0  0  0  0  0  0  0  0  0
   47.2487   55.4791   26.8943 C   0  0  0  0  0  0  0  0  0  0  0  0
   47.5867   55.1915   25.4999 N   0  0  0  0  0  0  0  0  0  0  0  0
   48.4844   57.8138   27.0219 N   0  0  0  0  0  0  0  0  0  0  0  0
   48.6289   58.7530   28.0700 C   0  0  0  0  0  0  0  0  0  0  0  0
   47.9468   58.2602   29.2197 N   0  0  0  0  0  0  0  0  0  0  0  0
  2  1  1  6  0  0  0
  2  3  1  0  0  0  0
  2  5  1  0  0  0  0
  3  4  1  0  0  0  0
  3 17  1  0  0  0  0
  5  6  1  0  0  0  0
  7  6  1  6  0  0  0
  7  8  1  0  0  0  0
  7  9  1  0  0  0  0
 10  9  1  6  0  0  0
 10 11  1  0  0  0  0
 10 12  1  0  0  0  0
 11 16  1  0  0  0  0
 12 13  1  1  0  0  0
 12 14  1  0  0  0  0
 14 15  1  1  0  0  0
 14 16  1  0  0  0  0
 16 27  1  6  0  0  0
 18 19  2  0  0  0  0
 18 23  1  0  0  0  0
 19 20  1  0  0  0  0
 20 21  2  0  0  0  0
 21 22  1  0  0  0  0
 21 27  1  0  0  0  0
 22 23  2  0  0  0  0
 22 25  1  0  0  0  0
 23 24  1  0  0  0  0
 25 26  2  0  0  0  0
 26 27  1  0  0  0  0
M  END
>  <CHROM.1>
-142.94582409,-56.57293943,-176.44524973,68.88551045,-63.11655796,43.87125302
51.24585165,47.68178349,56.34596323,30.28268716,-0.69772203,-1.25887567,1.55721274

>  <Name>
ligand

>  <RI>
0

>  <Rbt.Current_Directory>
/home/itssahil/PROJECTS/Mol_Feturizer/New_Systems/rnas/3GX2

>  <Rbt.Executable>
rbdock ($Id: //depot/dev/client3/rdock/2013.1/src/exe/rbdock.cxx#4 $)

>  <Rbt.Library>
libRbt.so (2013.1, Build901 2013/11/27)

>  <Rbt.Parameter_File>
/export/apps/rDock/src/rDock_2013.1_src/data/scripts/dock_solv.prm

>  <Rbt.Receptor>
prm/pocket_docking_3.prm

>  <SCORE>
-10.3613

>  <SCORE.INTER>
-5.391

>  <SCORE.INTER.CONST>
1

>  <SCORE.INTER.POLAR>
0

>  <SCORE.INTER.ROT>
7

>  <SCORE.INTER.SOLV>
13.1416

>  <SCORE.INTER.VDW>
-16.2412

>  <SCORE.INTER.norm>
-0.199667

>  <SCORE.INTRA>
-4.97027

>  <SCORE.INTRA.DIHEDRAL>
-8.2629

>  <SCORE.INTRA.DIHEDRAL.0>
13.9704

>  <SCORE.INTRA.POLAR>
0

>  <SCORE.INTRA.POLAR.0>
0

>  <SCORE.INTRA.REPUL>
0

>  <SCORE.INTRA.REPUL.0>
0

>  <SCORE.INTRA.SOLV>
1.30679

>  <SCORE.INTRA.SOLV.lig_0>
-70.9758

>  <SCORE.INTRA.VDW>
-1.49221

>  <SCORE.INTRA.VDW.0>
-2.70686

>  <SCORE.INTRA.norm>
-0.184084

>  <SCORE.RESTR>
0

>  <SCORE.RESTR.CAVITY>
0

>  <SCORE.RESTR.norm>
0

>  <SCORE.SYSTEM>
0

>  <SCORE.SYSTEM.CONST>
0

>  <SCORE.SYSTEM.DIHEDRAL>
0

>  <SCORE.SYSTEM.SOLV>
0

>  <SCORE.SYSTEM.norm>
0

>  <SCORE.heavy>
27

>  <SCORE.norm>
-0.383751

>  <RMSD>
5.212

$$$$
ligand
 OpenBabel11021811473D
libRbt.so/2013.1/901 2013/11/27
 27 29  0  0  0  0  0  0  0  0999 V2000
   49.1517   53.2387   27.0802 N   0  0  0  0  0  0  0  0  0  0  0  0
   49.1076   53.1883   28.5398 C   0  0  2  0  0  0  0  0  0  0  0  0
   47.8088   52.6081   29.1034 C   0  0  0  0  0  0  0  0  0  0  0  0
   47.8393   52.0570   30.1532 O   0  0  0  0  0  0  0  0  0  0  0  0
   49.5378   54.4936   29.2416 C   0  0  0  0  0  0  0  0  0  0  0  0
   48.6809   55.7771   29.0590 C   0  0  0  0  0  0  0  0  0  0  0  0
   49.3052   57.0877   29.6075 C   0  0  2  0  0  0  0  0  0  0  0  0
   49.6175   57.0157   31.0349 N   0  0  0  0  0  0  0  0  0  0  0  0
   48.4639   58.3450   29.2273 C   0  0  0  0  0  0  0  0  0  0  0  0
   47.1510   58.6369   30.0294 C   0  0  1  0  0  0  0  0  0  0  0  0
   46.3251   57.5186   30.4706 O   0  0  0  0  0  0  0  0  0  0  0  0
   47.2830   59.5425   31.2858 C   0  0  1  0  0  0  0  0  0  0  0  0
   47.6442   60.9154   31.0862 O   0  0  0  0  0  0  0  0  0  0  0  0
   46.0419   59.2013   32.1675 C   0  0  1  0  0  0  0  0  0  0  0  0
   45.0314   60.1732   32.2914 O   0  0  0  0  0  0  0  0  0  0  0  0
   45.6626   57.7968   31.6877 C   0  0  2  0  0  0  0  0  0  0  0  0
   46.5846   53.1355   28.6462 O   0  0  0  0  0  0  0  0  0  0  0  0
   49.1982   55.8965   35.3449 N   0  0  0  0  0  0  0  0  0  0  0  0
   49.3460   57.0178   34.5206 C   0  0  0  0  0  0  0  0  0  0  0  0
   48.2836   57.3846   33.5870 N   0  0  0  0  0  0  0  0  0  0  0  0
   47.1406   56.6336   33.5176 C   0  0  0  0  0  0  0  0  0  0  0  0
   47.0007   55.5056   34.3494 C   0  0  0  0  0  0  0  0  0  0  0  0
   48.0603   55.1402   35.2790 C   0  0  0  0  0  0  0  0  0  0  0  0
   47.9164   53.9691   36.1447 N   0  0  0  0  0  0  0  0  0  0  0  0
   45.7186   54.9049   34.0728 N   0  0  0  0  0  0  0  0  0  0  0  0
   45.0890   55.6765   33.0679 C   0  0  0  0  0  0  0  0  0  0  0  0
   45.9527   56.7524   32.7124 N   0  0  0  0  0  0  0  0  0  0  0  0
  2  1  1  6  0  0  0
  2  3  1  0  0  0  0
  2  5  1  0  0  0  0
  3  4  1  0  0  0  0
  3 17  1  0  0  0  0
  5  6  1  0  0  0  0
  7  6  1  1  0  0  0
  7  8  1  0  0  0  0
  7  9  1  0  0  0  0
 10  9  1  1  0  0  0
 10 11  1  0  0  0  0
 10 12  1  0  0  0  0
 11 16  1  0  0  0  0
 12 13  1  6  0  0  0
 12 14  1  0  0  0  0
 14 15  1  6  0  0  0
 14 16  1  0  0  0  0
 16 27  1  1  0  0  0
 18 19  2  0  0  0  0
 18 23  1  0  0  0  0
 19 20  1  0  0  0  0
 20 21  2  0  0  0  0
 21 22  1  0  0  0  0
 21 27  1  0  0  0  0
 22 23  2  0  0  0  0
 22 25  1  0  0  0  0
 23 24  1  0  0  0  0
 25 26  2  0  0  0  0
 26 27  1  0  0  0  0
M  END
>  <CHROM.1>
151.48906568,65.04442391,-170.53963207,-57.81608814,77.28343741,-36.27224357
79.16960850,47.57550936,56.29160209,31.52985016,0.14481441,1.33168546,-0.95633121

>  <Name>
ligand

>  <RI>
0

>  <Rbt.Current_Directory>
/home/itssahil/PROJECTS/Mol_Feturizer/New_Systems/rnas/3GX2

>  <Rbt.Executable>
rbdock ($Id: //depot/dev/client3/rdock/2013.1/src/exe/rbdock.cxx#4 $)

>  <Rbt.Library>
libRbt.so (2013.1, Build901 2013/11/27)

>  <Rbt.Parameter_File>
/export/apps/rDock/src/rDock_2013.1_src/data/scripts/dock_solv.prm

>  <Rbt.Receptor>
prm/pocket_docking_3.prm

>  <SCORE>
-10.2376

>  <SCORE.INTER>
-8.1612

>  <SCORE.INTER.CONST>
1

>  <SCORE.INTER.POLAR>
0

>  <SCORE.INTER.ROT>
7

>  <SCORE.INTER.SOLV>
12.8626

>  <SCORE.INTER.VDW>
-17.995

>  <SCORE.INTER.norm>
-0.302267

>  <SCORE.INTRA>
-2.07644

>  <SCORE.INTRA.DIHEDRAL>
-5.62183

>  <SCORE.INTRA.DIHEDRAL.0>
13.9704

>  <SCORE.INTRA.POLAR>
0

>  <SCORE.INTRA.POLAR.0>
0

>  <SCORE.INTRA.REPUL>
0

>  <SCORE.INTRA.REPUL.0>
0

>  <SCORE.INTRA.SOLV>
3.69996

>  <SCORE.INTRA.SOLV.lig_0>
-70.9758

>  <SCORE.INTRA.VDW>
-1.1155

>  <SCORE.INTRA.VDW.0>
-2.70686

>  <SCORE.INTRA.norm>
-0.0769051

>  <SCORE.RESTR>
0

>  <SCORE.RESTR.CAVITY>
0

>  <SCORE.RESTR.norm>
0

>  <SCORE.SYSTEM>
0

>  <SCORE.SYSTEM.CONST>
0

>  <SCORE.SYSTEM.DIHEDRAL>
0

>  <SCORE.SYSTEM.SOLV>
0

>  <SCORE.SYSTEM.norm>
0

>  <SCORE.heavy>
27

>  <SCORE.norm>
-0.379172

>  <RMSD>
5.216

$$$$
ligand
 OpenBabel11021811473D
libRbt.so/2013.1/901 2013/11/27
 27 29  0  0  0  0  0  0  0  0999 V2000
   49.1439   56.5087   27.8051 N   0  0  0  0  0  0  0  0  0  0  0  0
   47.9012   57.1636   28.2074 C   0  0  2  0  0  0  0  0  0  0  0  0
   46.7232   56.8928   27.2691 C   0  0  0  0  0  0  0  0  0  0  0  0
   45.6946   57.4477   27.4713 O   0  0  0  0  0  0  0  0  0  0  0  0
   48.0494   58.6557   28.5719 C   0  0  0  0  0  0  0  0  0  0  0  0
   48.1711   59.0686   30.0651 C   0  0  0  0  0  0  0  0  0  0  0  0
   46.8485   59.0586   30.8769 C   0  0  2  0  0  0  0  0  0  0  0  0
   45.9311   60.1281   30.4839 N   0  0  0  0  0  0  0  0  0  0  0  0
   47.1020   59.0035   32.4151 C   0  0  0  0  0  0  0  0  0  0  0  0
   47.8443   57.7579   33.0066 C   0  0  1  0  0  0  0  0  0  0  0  0
   47.2603   56.4332   32.8292 O   0  0  0  0  0  0  0  0  0  0  0  0
   49.3380   57.5801   32.6155 C   0  0  1  0  0  0  0  0  0  0  0  0
   50.2754   58.5535   33.0940 O   0  0  0  0  0  0  0  0  0  0  0  0
   49.6384   56.0640   32.8278 C   0  0  1  0  0  0  0  0  0  0  0  0
   50.4789   55.6996   33.8963 O   0  0  0  0  0  0  0  0  0  0  0  0
   48.2484   55.4274   32.7297 C   0  0  2  0  0  0  0  0  0  0  0  0
   46.9951   56.4131   25.9724 O   0  0  0  0  0  0  0  0  0  0  0  0
   50.4277   53.9079   27.9937 N   0  0  0  0  0  0  0  0  0  0  0  0
   50.9877   54.7570   28.9552 C   0  0  0  0  0  0  0  0  0  0  0  0
   50.2527   55.0591   30.1814 N   0  0  0  0  0  0  0  0  0  0  0  0
   49.0158   54.5112   30.3936 C   0  0  0  0  0  0  0  0  0  0  0  0
   48.4587   53.6592   29.4200 C   0  0  0  0  0  0  0  0  0  0  0  0
   49.1914   53.3592   28.1978 C   0  0  0  0  0  0  0  0  0  0  0  0
   48.6147   52.4735   27.1857 N   0  0  0  0  0  0  0  0  0  0  0  0
   47.1649   53.2301   29.8920 N   0  0  0  0  0  0  0  0  0  0  0  0
   46.9455   53.8308   31.1540 C   0  0  0  0  0  0  0  0  0  0  0  0
   48.0810   54.6262   31.4827 N   0  0  0  0  0  0  0  0  0  0  0  0
  2  1  1  6  0  0  0
  2  3  1  0  0  0  0
  2  5  1  0  0  0  0
  3  4  1  0  0  0  0
  3 17  1  0  0  0  0
  5  6  1  0  0  0  0
  7  6  1  6  0  0  0
  7  8  1  0  0  0  0
  7  9  1  0  0  0  0
 10  9  1  6  0  0  0
 10 11  1  0  0  0  0
 10 12  1  0  0  0  0
 11 16  1  0  0  0  0
 12 13  1  1  0  0  0
 12 14  1  0  0  0  0
 14 15  1  1  0  0  0
 14 16  1  0  0  0  0
 16 27  1  6  0  0  0
 18 19  2  0  0  0  0
 18 23  1  0  0  0  0
 19 20  1  0  0  0  0
 20 21  2  0  0  0  0
 21 22  1  0  0  0  0
 21 27  1  0  0  0  0
 22 23  2  0  0  0  0
 22 25  1  0  0  0  0
 23 24  1  0  0  0  0
 25 26  2  0  0  0  0
 26 27  1  0  0  0  0
M  END
>  <CHROM.1>
-175.51818962,-98.14859803,-76.89790596,-70.13402100,-62.02943973,-59.86406424
117.67760289,48.30892894,56.25566108,30.19598304,1.58888669,1.05097147,-2.18258795

>  <Name>
ligand

>  <RI>
0

>  <Rbt.Current_Directory>
/home/itssahil/PROJECTS/Mol_Feturizer/New_Systems/rnas/3GX2

>  <Rbt.Executable>
rbdock ($Id: //depot/dev/client3/rdock/2013.1/src/exe/rbdock.cxx#4 $)

>  <Rbt.Library>
libRbt.so (2013.1, Build901 2013/11/27)

>  <Rbt.Parameter_File>
/export/apps/rDock/src/rDock_2013.1_src/data/scripts/dock_solv.prm

>  <Rbt.Receptor>
prm/pocket_docking_2.prm

>  <SCORE>
-5.42243

>  <SCORE.INTER>
-3.91068

>  <SCORE.INTER.CONST>
1

>  <SCORE.INTER.POLAR>
0

>  <SCORE.INTER.ROT>
7

>  <SCORE.INTER.SOLV>
16.1284

>  <SCORE.INTER.VDW>
-16.2499

>  <SCORE.INTER.norm>
-0.14484

>  <SCORE.INTRA>
-1.80808

>  <SCORE.INTRA.DIHEDRAL>
-4.36111

>  <SCORE.INTRA.DIHEDRAL.0>
13.9704

>  <SCORE.INTRA.POLAR>
0

>  <SCORE.INTRA.POLAR.0>
0

>  <SCORE.INTRA.REPUL>
0

>  <SCORE.INTRA.REPUL.0>
0

>  <SCORE.INTRA.SOLV>
3.87989

>  <SCORE.INTRA.SOLV.lig_0>
-70.9758

>  <SCORE.INTRA.VDW>
-1.56747

>  <SCORE.INTRA.VDW.0>
-2.70686

>  <SCORE.INTRA.norm>
-0.0669658

>  <SCORE.RESTR>
0.296325

>  <SCORE.RESTR.CAVITY>
0.296325

>  <SCORE.RESTR.norm>
0.010975

>  <SCORE.SYSTEM>
0

>  <SCORE.SYSTEM.CONST>
0

>  <SCORE.SYSTEM.DIHEDRAL>
0

>  <SCORE.SYSTEM.SOLV>
0

>  <SCORE.SYSTEM.norm>
0

>  <SCORE.heavy>
27

>  <SCORE.norm>
-0.200831

>  <RMSD>
5.232

$$$$
ligand
 OpenBabel11021811473D
libRbt.so/2013.1/901 2013/11/27
 27 29  0  0  0  0  0  0  0  0999 V2000
   48.7019   53.3697   30.0717 N   0  0  0  0  0  0  0  0  0  0  0  0
   47.5648   52.7475   29.3972 C   0  0  2  0  0  0  0  0  0  0  0  0
   47.7171   52.6557   27.8774 C   0  0  0  0  0  0  0  0  0  0  0  0
   48.7298   52.2290   27.4310 O   0  0  0  0  0  0  0  0  0  0  0  0
   46.1858   53.2860   29.8322 C   0  0  0  0  0  0  0  0  0  0  0  0
   45.9579   54.8209   29.9187 C   0  0  0  0  0  0  0  0  0  0  0  0
   46.0464   55.5918   28.5748 C   0  0  2  0  0  0  0  0  0  0  0  0
   47.4239   55.8108   28.1336 N   0  0  0  0  0  0  0  0  0  0  0  0
   45.1925   56.8972   28.5873 C   0  0  0  0  0  0  0  0  0  0  0  0
   45.2881   57.8415   29.8328 C   0  0  1  0  0  0  0  0  0  0  0  0
   44.7060   57.4088   31.0982 O   0  0  0  0  0  0  0  0  0  0  0  0
   46.7031   58.3605   30.2129 C   0  0  1  0  0  0  0  0  0  0  0  0
   47.3567   59.2516   29.2996 O   0  0  0  0  0  0  0  0  0  0  0  0
   46.6036   58.7519   31.7199 C   0  0  1  0  0  0  0  0  0  0  0  0
   46.6506   60.1186   32.0527 O   0  0  0  0  0  0  0  0  0  0  0  0
   45.4200   57.9116   32.2096 C   0  0  2  0  0  0  0  0  0  0  0  0
   46.5508   52.6070   27.0882 O   0  0  0  0  0  0  0  0  0  0  0  0
   49.3943   55.8713   35.2966 N   0  0  0  0  0  0  0  0  0  0  0  0
   49.4236   57.0476   34.5387 C   0  0  0  0  0  0  0  0  0  0  0  0
   48.2525   57.4461   33.7610 N   0  0  0  0  0  0  0  0  0  0  0  0
   47.1236   56.6712   33.7733 C   0  0  0  0  0  0  0  0  0  0  0  0
   47.1031   55.4880   34.5373 C   0  0  0  0  0  0  0  0  0  0  0  0
   48.2709   55.0910   35.3114 C   0  0  0  0  0  0  0  0  0  0  0  0
   48.2512   53.8627   36.1065 N   0  0  0  0  0  0  0  0  0  0  0  0
   45.8090   54.8729   34.3705 N   0  0  0  0  0  0  0  0  0  0  0  0
   45.0518   55.6913   33.4997 C   0  0  0  0  0  0  0  0  0  0  0  0
   45.8476   56.8107   33.1206 N   0  0  0  0  0  0  0  0  0  0  0  0
  2  1  1  6  0  0  0
  2  3  1  0  0  0  0
  2  5  1  0  0  0  0
  3  4  1  0  0  0  0
  3 17  1  0  0  0  0
  5  6  1  0  0  0  0
  7  6  1  1  0  0  0
  7  8  1  0  0  0  0
  7  9  1  0  0  0  0
 10  9  1  6  0  0  0
 10 11  1  0  0  0  0
 10 12  1  0  0  0  0
 11 16  1  0  0  0  0
 12 13  1  6  0  0  0
 12 14  1  0  0  0  0
 14 15  1  6  0  0  0
 14 16  1  0  0  0  0
 16 27  1  6  0  0  0
 18 19  2  0  0  0  0
 18 23  1  0  0  0  0
 19 20  1  0  0  0  0
 20 21  2  0  0  0  0
 21 22  1  0  0  0  0
 21 27  1  0  0  0  0
 22 23  2  0  0  0  0
 22 25  1  0  0  0  0
 23 24  1  0  0  0  0
 25 26  2  0  0  0  0
 26 27  1  0  0  0  0
M  END
>  <CHROM.1>
48.32768815,47.30200064,64.71712085,-77.75315547,45.91632975,-70.57468847
137.81213000,46.93040508,55.87207210,31.28805789,-1.69180714,-1.19695398
1.00335194

>  <Name>
ligand

>  <RI>
0

>  <Rbt.Current_Directory>
/home/itssahil/PROJECTS/Mol_Feturizer/New_Systems/rnas/3GX2

>  <Rbt.Executable>
rbdock ($Id: //depot/dev/client3/rdock/2013.1/src/exe/rbdock.cxx#4 $)

>  <Rbt.Library>
libRbt.so (2013.1, Build901 2013/11/27)

>  <Rbt.Parameter_File>
/export/apps/rDock/src/rDock_2013.1_src/data/scripts/dock_solv.prm

>  <Rbt.Receptor>
prm/pocket_docking_3.prm

>  <SCORE>
-8.63956

>  <SCORE.INTER>
-8.09897

>  <SCORE.INTER.CONST>
1

>  <SCORE.INTER.POLAR>
0

>  <SCORE.INTER.ROT>
7

>  <SCORE.INTER.SOLV>
10.2393

>  <SCORE.INTER.VDW>
-17.0791

>  <SCORE.INTER.norm>
-0.299962

>  <SCORE.INTRA>
-0.546164

>  <SCORE.INTRA.DIHEDRAL>
-6.39434

>  <SCORE.INTRA.DIHEDRAL.0>
13.9704

>  <SCORE.INTRA.POLAR>
0

>  <SCORE.INTRA.POLAR.0>
0

>  <SCORE.INTRA.REPUL>
0

>  <SCORE.INTRA.REPUL.0>
0

>  <SCORE.INTRA.SOLV>
6.35259

>  <SCORE.INTRA.SOLV.lig_0>
-70.9758

>  <SCORE.INTRA.VDW>
-0.525288

>  <SCORE.INTRA.VDW.0>
-2.70686

>  <SCORE.INTRA.norm>
-0.0202283

>  <SCORE.RESTR>
0.00557001

>  <SCORE.RESTR.CAVITY>
0.00557001

>  <SCORE.RESTR.norm>
0.000206297

>  <SCORE.SYSTEM>
0

>  <SCORE.SYSTEM.CONST>
0

>  <SCORE.SYSTEM.DIHEDRAL>
0

>  <SCORE.SYSTEM.SOLV>
0

>  <SCORE.SYSTEM.norm>
0

>  <SCORE.heavy>
27

>  <SCORE.norm>
-0.319984

>  <RMSD>
5.238

$$$$
ligand
 OpenBabel11021811473D
libRbt.so/2013.1/901 2013/11/27
 27 29  0  0  0  0  0  0  0  0999 V2000
   47.3734   54.2302   29.7801 N   0  0  0  0  0  0  0  0  0  0  0  0
   48.4094   53.8833   30.7504 C   0  0  2  0  0  0  0  0  0  0  0  0
   49.5919   53.1191   30.1515 C   0  0  0  0  0  0  0  0  0  0  0  0
   49.4048   52.4324   29.2027 O   0  0  0  0  0  0  0  0  0  0  0  0
   47.8823   53.2499   32.0551 C   0  0  0  0  0  0  0  0  0  0  0  0
   46.9333   54.0696   32.9729 C   0  0  0  0  0  0  0  0  0  0  0  0
   47.6071   55.1886   33.8109 C   0  0  2  0  0  0  0  0  0  0  0  0
   47.7377   54.8401   35.2257 N   0  0  0  0  0  0  0  0  0  0  0  0
   46.9387   56.5793   33.5819 C   0  0  0  0  0  0  0  0  0  0  0  0
   47.7668   57.6979   32.8640 C   0  0  1  0  0  0  0  0  0  0  0  0
   48.9368   57.3216   32.0786 O   0  0  0  0  0  0  0  0  0  0  0  0
   46.9794   58.6739   31.9457 C   0  0  1  0  0  0  0  0  0  0  0  0
   46.0362   59.5596   32.5631 O   0  0  0  0  0  0  0  0  0  0  0  0
   48.0415   59.2566   30.9626 C   0  0  1  0  0  0  0  0  0  0  0  0
   48.4040   60.6089   31.1063 O   0  0  0  0  0  0  0  0  0  0  0  0
   49.1408   58.1899   30.9822 C   0  0  2  0  0  0  0  0  0  0  0  0
   50.8943   53.5956   30.4013 O   0  0  0  0  0  0  0  0  0  0  0  0
   47.2233   57.6300   25.9327 N   0  0  0  0  0  0  0  0  0  0  0  0
   46.8299   58.5684   26.8936 C   0  0  0  0  0  0  0  0  0  0  0  0
   47.4590   58.5729   28.2124 N   0  0  0  0  0  0  0  0  0  0  0  0
   48.4358   57.6606   28.5106 C   0  0  0  0  0  0  0  0  0  0  0  0
   48.8245   56.7184   27.5384 C   0  0  0  0  0  0  0  0  0  0  0  0
   48.1965   56.7141   26.2246 C   0  0  0  0  0  0  0  0  0  0  0  0
   48.5997   55.7367   25.2129 N   0  0  0  0  0  0  0  0  0  0  0  0
   49.8563   55.8884   28.1106 N   0  0  0  0  0  0  0  0  0  0  0  0
   50.0843   56.3348   29.4336 C   0  0  0  0  0  0  0  0  0  0  0  0
   49.2158   57.4326   29.6993 N   0  0  0  0  0  0  0  0  0  0  0  0
  2  1  1  6  0  0  0
  2  3  1  0  0  0  0
  2  5  1  0  0  0  0
  3  4  1  0  0  0  0
  3 17  1  0  0  0  0
  5  6  1  0  0  0  0
  7  6  1  6  0  0  0
  7  8  1  0  0  0  0
  7  9  1  0  0  0  0
 10  9  1  6  0  0  0
 10 11  1  0  0  0  0
 10 12  1  0  0  0  0
 11 16  1  0  0  0  0
 12 13  1  1  0  0  0
 12 14  1  0  0  0  0
 14 15  1  1  0  0  0
 14 16  1  0  0  0  0
 16 27  1  6  0  0  0
 18 19  2  0  0  0  0
 18 23  1  0  0  0  0
 19 20  1  0  0  0  0
 20 21  2  0  0  0  0
 21 22  1  0  0  0  0
 21 27  1  0  0  0  0
 22 23  2  0  0  0  0
 22 25  1  0  0  0  0
 23 24  1  0  0  0  0
 25 26  2  0  0  0  0
 26 27  1  0  0  0  0
M  END
>  <CHROM.1>
-28.98249984,-62.07415758,-75.15127625,-105.51842870,-112.91537101,18.66671240
126.36391927,48.25943006,56.41911669,30.29397757,-1.19891024,-1.28020462
2.11405138

>  <Name>
ligand

>  <RI>
0

>  <Rbt.Current_Directory>
/home/itssahil/PROJECTS/Mol_Feturizer/New_Systems/rnas/3GX2

>  <Rbt.Executable>
rbdock ($Id: //depot/dev/client3/rdock/2013.1/src/exe/rbdock.cxx#4 $)

>  <Rbt.Library>
libRbt.so (2013.1, Build901 2013/11/27)

>  <Rbt.Parameter_File>
/export/apps/rDock/src/rDock_2013.1_src/data/scripts/dock_solv.prm

>  <Rbt.Receptor>
prm/pocket_docking_3.prm

>  <SCORE>
-5.99884

>  <SCORE.INTER>
-8.02891

>  <SCORE.INTER.CONST>
1

>  <SCORE.INTER.POLAR>
0

>  <SCORE.INTER.ROT>
7

>  <SCORE.INTER.SOLV>
14.3421

>  <SCORE.INTER.VDW>
-18.4

>  <SCORE.INTER.norm>
-0.297367

>  <SCORE.INTRA>
2.03007

>  <SCORE.INTRA.DIHEDRAL>
5.67079

>  <SCORE.INTRA.DIHEDRAL.0>
13.9704

>  <SCORE.INTRA.POLAR>
0

>  <SCORE.INTRA.POLAR.0>
0

>  <SCORE.INTRA.REPUL>
0

>  <SCORE.INTRA.REPUL.0>
0

>  <SCORE.INTRA.SOLV>
1.93304

>  <SCORE.INTRA.SOLV.lig_0>
-70.9758

>  <SCORE.INTRA.VDW>
-1.77184

>  <SCORE.INTRA.VDW.0>
-2.70686

>  <SCORE.INTRA.norm>
0.0751878

>  <SCORE.RESTR>
0

>  <SCORE.RESTR.CAVITY>
0

>  <SCORE.RESTR.norm>
0

>  <SCORE.SYSTEM>
0

>  <SCORE.SYSTEM.CONST>
0

>  <SCORE.SYSTEM.DIHEDRAL>
0

>  <SCORE.SYSTEM.SOLV>
0

>  <SCORE.SYSTEM.norm>
0

>  <SCORE.heavy>
27

>  <SCORE.norm>
-0.222179

>  <RMSD>
5.255

$$$$
ligand
 OpenBabel11021811473D
libRbt.so/2013.1/901 2013/11/27
 27 29  0  0  0  0  0  0  0  0999 V2000
   48.9339   57.4234   28.6272 N   0  0  0  0  0  0  0  0  0  0  0  0
   47.5610   57.5223   28.1370 C   0  0  2  0  0  0  0  0  0  0  0  0
   47.4531   57.9392   26.6688 C   0  0  0  0  0  0  0  0  0  0  0  0
   47.4560   57.0954   25.8352 O   0  0  0  0  0  0  0  0  0  0  0  0
   46.6045   58.3089   29.0577 C   0  0  0  0  0  0  0  0  0  0  0  0
   46.0061   57.6122   30.3113 C   0  0  0  0  0  0  0  0  0  0  0  0
   45.4270   58.5589   31.3961 C   0  0  2  0  0  0  0  0  0  0  0  0
   46.1319   59.8386   31.4702 N   0  0  0  0  0  0  0  0  0  0  0  0
   45.2901   57.8539   32.7808 C   0  0  0  0  0  0  0  0  0  0  0  0
   46.5437   57.1306   33.3790 C   0  0  1  0  0  0  0  0  0  0  0  0
   46.5912   55.6729   33.3755 O   0  0  0  0  0  0  0  0  0  0  0  0
   47.9322   57.5665   32.8330 C   0  0  1  0  0  0  0  0  0  0  0  0
   48.3767   58.8985   33.1215 O   0  0  0  0  0  0  0  0  0  0  0  0
   48.8828   56.3651   33.1282 C   0  0  1  0  0  0  0  0  0  0  0  0
   49.8699   56.5304   34.1177 O   0  0  0  0  0  0  0  0  0  0  0  0
   47.9114   55.1860   33.2421 C   0  0  2  0  0  0  0  0  0  0  0  0
   46.8835   59.1924   26.3674 O   0  0  0  0  0  0  0  0  0  0  0  0
   50.5719   53.9124   28.6828 N   0  0  0  0  0  0  0  0  0  0  0  0
   50.8231   54.9874   29.5431 C   0  0  0  0  0  0  0  0  0  0  0  0
   49.9993   55.1788   30.7346 N   0  0  0  0  0  0  0  0  0  0  0  0
   48.9812   54.3064   31.0132 C   0  0  0  0  0  0  0  0  0  0  0  0
   48.7339   53.2283   30.1412 C   0  0  0  0  0  0  0  0  0  0  0  0
   49.5549   53.0386   28.9535 C   0  0  0  0  0  0  0  0  0  0  0  0
   49.3002   51.9185   28.0468 N   0  0  0  0  0  0  0  0  0  0  0  0
   47.6188   52.4784   30.6657 N   0  0  0  0  0  0  0  0  0  0  0  0
   47.1948   53.1130   31.8569 C   0  0  0  0  0  0  0  0  0  0  0  0
   48.0271   54.2456   32.0901 N   0  0  0  0  0  0  0  0  0  0  0  0
  2  1  1  1  0  0  0
  2  3  1  0  0  0  0
  2  5  1  0  0  0  0
  3  4  1  0  0  0  0
  3 17  1  0  0  0  0
  5  6  1  0  0  0  0
  7  6  1  6  0  0  0
  7  8  1  0  0  0  0
  7  9  1  0  0  0  0
 10  9  1  6  0  0  0
 10 11  1  0  0  0  0
 10 12  1  0  0  0  0
 11 16  1  0  0  0  0
 12 13  1  1  0  0  0
 12 14  1  0  0  0  0
 14 15  1  1  0  0  0
 14 16  1  0  0  0  0
 16 27  1  6  0  0  0
 18 19  2  0  0  0  0
 18 23  1  0  0  0  0
 19 20  1  0  0  0  0
 20 21  2  0  0  0  0
 21 22  1  0  0  0  0
 21 27  1  0  0  0  0
 22 23  2  0  0  0  0
 22 25  1  0  0  0  0
 23 24  1  0  0  0  0
 25 26  2  0  0  0  0
 26 27  1  0  0  0  0
M  END
>  <CHROM.1>
89.28299936,-79.52697120,161.95393857,-31.72694124,52.63532255,-106.21594038
127.85047694,47.92771126,56.19589101,30.57135052,0.66203998,1.10439811,-1.41342686

>  <Name>
ligand

>  <RI>
0

>  <Rbt.Current_Directory>
/home/itssahil/PROJECTS/Mol_Feturizer/New_Systems/rnas/3GX2

>  <Rbt.Executable>
rbdock ($Id: //depot/dev/client3/rdock/2013.1/src/exe/rbdock.cxx#4 $)

>  <Rbt.Library>
libRbt.so (2013.1, Build901 2013/11/27)

>  <Rbt.Parameter_File>
/export/apps/rDock/src/rDock_2013.1_src/data/scripts/dock_solv.prm

>  <Rbt.Receptor>
prm/pocket_docking_2.prm

>  <SCORE>
-3.00622

>  <SCORE.INTER>
-5.88397

>  <SCORE.INTER.CONST>
1

>  <SCORE.INTER.POLAR>
0

>  <SCORE.INTER.ROT>
7

>  <SCORE.INTER.SOLV>
19.9192

>  <SCORE.INTER.VDW>
-18.8291

>  <SCORE.INTER.norm>
-0.217925

>  <SCORE.INTRA>
2.31187

>  <SCORE.INTRA.DIHEDRAL>
0.383015

>  <SCORE.INTRA.DIHEDRAL.0>
13.9704

>  <SCORE.INTRA.POLAR>
0

>  <SCORE.INTRA.POLAR.0>
0

>  <SCORE.INTRA.REPUL>
0

>  <SCORE.INTRA.REPUL.0>
0

>  <SCORE.INTRA.SOLV>
3.87784

>  <SCORE.INTRA.SOLV.lig_0>
-70.9758

>  <SCORE.INTRA.VDW>
0.181441

>  <SCORE.INTRA.VDW.0>
-2.70686

>  <SCORE.INTRA.norm>
0.0856247

>  <SCORE.RESTR>
0.565883

>  <SCORE.RESTR.CAVITY>
0.565883

>  <SCORE.RESTR.norm>
0.0209586

>  <SCORE.SYSTEM>
0

>  <SCORE.SYSTEM.CONST>
0

>  <SCORE.SYSTEM.DIHEDRAL>
0

>  <SCORE.SYSTEM.SOLV>
0

>  <SCORE.SYSTEM.norm>
0

>  <SCORE.heavy>
27

>  <SCORE.norm>
-0.111341

>  <RMSD>
5.256

$$$$
ligand
 OpenBabel11021811473D
libRbt.so/2013.1/901 2013/11/27
 27 29  0  0  0  0  0  0  0  0999 V2000
   49.4904   55.2857   26.2049 N   0  0  0  0  0  0  0  0  0  0  0  0
   50.8614   55.0525   26.6530 C   0  0  2  0  0  0  0  0  0  0  0  0
   51.6501   54.0869   25.7659 C   0  0  0  0  0  0  0  0  0  0  0  0
   51.1459   53.0600   25.4527 O   0  0  0  0  0  0  0  0  0  0  0  0
   51.0017   54.7385   28.1573 C   0  0  0  0  0  0  0  0  0  0  0  0
   50.8030   55.8766   29.1967 C   0  0  0  0  0  0  0  0  0  0  0  0
   49.4025   56.5450   29.2044 C   0  0  2  0  0  0  0  0  0  0  0  0
   49.1319   57.3139   27.9896 N   0  0  0  0  0  0  0  0  0  0  0  0
   49.1436   57.3548   30.5122 C   0  0  0  0  0  0  0  0  0  0  0  0
   47.7980   58.1442   30.6491 C   0  0  1  0  0  0  0  0  0  0  0  0
   46.5372   57.4370   30.4556 O   0  0  0  0  0  0  0  0  0  0  0  0
   47.5913   58.9571   31.9577 C   0  0  1  0  0  0  0  0  0  0  0  0
   48.4487   60.0825   32.1889 O   0  0  0  0  0  0  0  0  0  0  0  0
   46.0470   59.1360   32.0879 C   0  0  1  0  0  0  0  0  0  0  0  0
   45.5116   60.4230   31.8934 O   0  0  0  0  0  0  0  0  0  0  0  0
   45.5007   57.9737   31.2528 C   0  0  2  0  0  0  0  0  0  0  0  0
   52.6911   54.6053   24.9702 O   0  0  0  0  0  0  0  0  0  0  0  0
   46.1580   54.3995   35.2877 N   0  0  0  0  0  0  0  0  0  0  0  0
   47.1138   55.2777   34.7642 C   0  0  0  0  0  0  0  0  0  0  0  0
   46.7586   56.1770   33.6686 N   0  0  0  0  0  0  0  0  0  0  0  0
   45.4901   56.1640   33.1530 C   0  0  0  0  0  0  0  0  0  0  0  0
   44.5348   55.2757   33.6844 C   0  0  0  0  0  0  0  0  0  0  0  0
   44.8897   54.3793   34.7757 C   0  0  0  0  0  0  0  0  0  0  0  0
   43.8983   53.4564   35.3298 N   0  0  0  0  0  0  0  0  0  0  0  0
   43.2995   55.4680   32.9648 N   0  0  0  0  0  0  0  0  0  0  0  0
   43.5177   56.4752   31.9954 C   0  0  0  0  0  0  0  0  0  0  0  0
   44.8674   56.9200   32.0975 N   0  0  0  0  0  0  0  0  0  0  0  0
  2  1  1  6  0  0  0
  2  3  1  0  0  0  0
  2  5  1  0  0  0  0
  3  4  1  0  0  0  0
  3 17  1  0  0  0  0
  5  6  1  0  0  0  0
  7  6  1  6  0  0  0
  7  8  1  0  0  0  0
  7  9  1  0  0  0  0
 10  9  1  1  0  0  0
 10 11  1  0  0  0  0
 10 12  1  0  0  0  0
 11 16  1  0  0  0  0
 12 13  1  6  0  0  0
 12 14  1  0  0  0  0
 14 15  1  6  0  0  0
 14 16  1  0  0  0  0
 16 27  1  1  0  0  0
 18 19  2  0  0  0  0
 18 23  1  0  0  0  0
 19 20  1  0  0  0  0
 20 21  2  0  0  0  0
 21 22  1  0  0  0  0
 21 27  1  0  0  0  0
 22 23  2  0  0  0  0
 22 25  1  0  0  0  0
 23 24  1  0  0  0  0
 25 26  2  0  0  0  0
 26 27  1  0  0  0  0
M  END
>  <CHROM.1>
-47.92265161,-72.61484148,61.17813140,-67.62775481,177.30745737,53.92896158
64.39412106,47.61407431,56.32639890,30.72224957,0.09958556,-0.87329376,3.07922691

>  <Name>
ligand

>  <RI>
0

>  <Rbt.Current_Directory>
/home/itssahil/PROJECTS/Mol_Feturizer/New_Systems/rnas/3GX2

>  <Rbt.Executable>
rbdock ($Id: //depot/dev/client3/rdock/2013.1/src/exe/rbdock.cxx#4 $)

>  <Rbt.Library>
libRbt.so (2013.1, Build901 2013/11/27)

>  <Rbt.Parameter_File>
/export/apps/rDock/src/rDock_2013.1_src/data/scripts/dock_solv.prm

>  <Rbt.Receptor>
prm/pocket_docking_6.prm

>  <SCORE>
-9.23059

>  <SCORE.INTER>
-6.9327

>  <SCORE.INTER.CONST>
1

>  <SCORE.INTER.POLAR>
0

>  <SCORE.INTER.ROT>
7

>  <SCORE.INTER.SOLV>
10.5139

>  <SCORE.INTER.VDW>
-16.3931

>  <SCORE.INTER.norm>
-0.256767

>  <SCORE.INTRA>
-2.29789

>  <SCORE.INTRA.DIHEDRAL>
-8.60436

>  <SCORE.INTRA.DIHEDRAL.0>
13.9704

>  <SCORE.INTRA.POLAR>
0

>  <SCORE.INTRA.POLAR.0>
0

>  <SCORE.INTRA.REPUL>
0

>  <SCORE.INTRA.REPUL.0>
0

>  <SCORE.INTRA.SOLV>
4.74957

>  <SCORE.INTRA.SOLV.lig_0>
-70.9758

>  <SCORE.INTRA.VDW>
-0.370493

>  <SCORE.INTRA.VDW.0>
-2.70686

>  <SCORE.INTRA.norm>
-0.085107

>  <SCORE.RESTR>
0

>  <SCORE.RESTR.CAVITY>
0

>  <SCORE.RESTR.norm>
0

>  <SCORE.SYSTEM>
0

>  <SCORE.SYSTEM.CONST>
0

>  <SCORE.SYSTEM.DIHEDRAL>
0

>  <SCORE.SYSTEM.SOLV>
0

>  <SCORE.SYSTEM.norm>
0

>  <SCORE.heavy>
27

>  <SCORE.norm>
-0.341874

>  <RMSD>
5.263

$$$$
ligand
 OpenBabel11021811483D
libRbt.so/2013.1/901 2013/11/27
 27 29  0  0  0  0  0  0  0  0999 V2000
   51.7610   53.7092   27.3438 N   0  0  0  0  0  0  0  0  0  0  0  0
   50.9291   53.4079   28.5067 C   0  0  2  0  0  0  0  0  0  0  0  0
   49.7046   52.5471   28.1894 C   0  0  0  0  0  0  0  0  0  0  0  0
   49.4656   52.2921   27.0559 O   0  0  0  0  0  0  0  0  0  0  0  0
   50.5945   54.6273   29.3912 C   0  0  0  0  0  0  0  0  0  0  0  0
   49.8876   55.8584   28.7589 C   0  0  0  0  0  0  0  0  0  0  0  0
   49.1712   56.8089   29.7547 C   0  0  2  0  0  0  0  0  0  0  0  0
   48.1139   56.1439   30.5162 N   0  0  0  0  0  0  0  0  0  0  0  0
   48.6967   58.1286   29.0716 C   0  0  0  0  0  0  0  0  0  0  0  0
   47.6208   59.0028   29.7999 C   0  0  1  0  0  0  0  0  0  0  0  0
   46.2489   58.5150   29.8851 O   0  0  0  0  0  0  0  0  0  0  0  0
   47.9573   59.4717   31.2430 C   0  0  1  0  0  0  0  0  0  0  0  0
   49.0396   60.3967   31.4108 O   0  0  0  0  0  0  0  0  0  0  0  0
   46.5786   59.7838   31.9032 C   0  0  1  0  0  0  0  0  0  0  0  0
   46.2604   61.1295   32.1654 O   0  0  0  0  0  0  0  0  0  0  0  0
   45.6069   58.9428   31.0694 C   0  0  2  0  0  0  0  0  0  0  0  0
   49.1970   51.7049   29.1987 O   0  0  0  0  0  0  0  0  0  0  0  0
   41.7228   55.1632   31.4098 N   0  0  0  0  0  0  0  0  0  0  0  0
   41.8693   56.1472   30.4253 C   0  0  0  0  0  0  0  0  0  0  0  0
   42.9839   57.0895   30.4930 N   0  0  0  0  0  0  0  0  0  0  0  0
   43.8883   57.0112   31.5183 C   0  0  0  0  0  0  0  0  0  0  0  0
   43.7325   56.0192   32.5060 C   0  0  0  0  0  0  0  0  0  0  0  0
   42.6210   55.0808   32.4383 C   0  0  0  0  0  0  0  0  0  0  0  0
   42.4579   54.0489   33.4629 N   0  0  0  0  0  0  0  0  0  0  0  0
   44.8092   56.1632   33.4551 N   0  0  0  0  0  0  0  0  0  0  0  0
   45.6122   57.2493   33.0345 C   0  0  0  0  0  0  0  0  0  0  0  0
   45.0596   57.7863   31.8360 N   0  0  0  0  0  0  0  0  0  0  0  0
  2  1  1  6  0  0  0
  2  3  1  0  0  0  0
  2  5  1  0  0  0  0
  3  4  1  0  0  0  0
  3 17  1  0  0  0  0
  5  6  1  0  0  0  0
  7  6  1  6  0  0  0
  7  8  1  0  0  0  0
  7  9  1  0  0  0  0
 10  9  1  1  0  0  0
 10 11  1  0  0  0  0
 10 12  1  0  0  0  0
 11 16  1  0  0  0  0
 12 13  1  6  0  0  0
 12 14  1  0  0  0  0
 14 15  1  6  0  0  0
 14 16  1  0  0  0  0
 16 27  1  1  0  0  0
 18 19  2  0  0  0  0
 18 23  1  0  0  0  0
 19 20  1  0  0  0  0
 20 21  2  0  0  0  0
 21 22  1  0  0  0  0
 21 27  1  0  0  0  0
 22 23  2  0  0  0  0
 22 25  1  0  0  0  0
 23 24  1  0  0  0  0
 25 26  2  0  0  0  0
 26 27  1  0  0  0  0
M  END
>  <CHROM.1>
-6.08839504,56.85199406,160.28522747,-60.22672347,162.80444779,-70.60422365
-74.66597686,46.81898285,56.45372217,30.54138930,0.55885033,-0.40293170,-2.89279346

>  <Name>
ligand

>  <RI>
0

>  <Rbt.Current_Directory>
/home/itssahil/PROJECTS/Mol_Feturizer/New_Systems/rnas/3GX2

>  <Rbt.Executable>
rbdock ($Id: //depot/dev/client3/rdock/2013.1/src/exe/rbdock.cxx#4 $)

>  <Rbt.Library>
libRbt.so (2013.1, Build901 2013/11/27)

>  <Rbt.Parameter_File>
/export/apps/rDock/src/rDock_2013.1_src/data/scripts/dock_solv.prm

>  <Rbt.Receptor>
prm/pocket_docking_8.prm

>  <SCORE>
-12.1039

>  <SCORE.INTER>
-10.9

>  <SCORE.INTER.CONST>
1

>  <SCORE.INTER.POLAR>
0

>  <SCORE.INTER.ROT>
7

>  <SCORE.INTER.SOLV>
13.4015

>  <SCORE.INTER.VDW>
-20.0005

>  <SCORE.INTER.norm>
-0.403703

>  <SCORE.INTRA>
-1.21098

>  <SCORE.INTRA.DIHEDRAL>
-6.34557

>  <SCORE.INTRA.DIHEDRAL.0>
13.9704

>  <SCORE.INTRA.POLAR>
0

>  <SCORE.INTRA.POLAR.0>
0

>  <SCORE.INTRA.REPUL>
0

>  <SCORE.INTRA.REPUL.0>
0

>  <SCORE.INTRA.SOLV>
3.53966

>  <SCORE.INTRA.SOLV.lig_0>
-70.9758

>  <SCORE.INTRA.VDW>
0.191978

>  <SCORE.INTRA.VDW.0>
-2.70686

>  <SCORE.INTRA.norm>
-0.0448511

>  <SCORE.RESTR>
0.00706361

>  <SCORE.RESTR.CAVITY>
0.00706361

>  <SCORE.RESTR.norm>
0.000261615

>  <SCORE.SYSTEM>
0

>  <SCORE.SYSTEM.CONST>
0

>  <SCORE.SYSTEM.DIHEDRAL>
0

>  <SCORE.SYSTEM.SOLV>
0

>  <SCORE.SYSTEM.norm>
0

>  <SCORE.heavy>
27

>  <SCORE.norm>
-0.448292

>  <RMSD>
5.270

$$$$
ligand
 OpenBabel11021811473D
libRbt.so/2013.1/901 2013/11/27
 27 29  0  0  0  0  0  0  0  0999 V2000
   48.4258   54.0004   28.2947 N   0  0  0  0  0  0  0  0  0  0  0  0
   49.7533   54.1888   27.7140 C   0  0  2  0  0  0  0  0  0  0  0  0
   50.9025   53.8952   28.6807 C   0  0  0  0  0  0  0  0  0  0  0  0
   52.0172   53.9973   28.2884 O   0  0  0  0  0  0  0  0  0  0  0  0
   49.9370   55.5144   26.9458 C   0  0  0  0  0  0  0  0  0  0  0  0
   49.9048   56.8590   27.7244 C   0  0  0  0  0  0  0  0  0  0  0  0
   48.5064   57.3204   28.2144 C   0  0  2  0  0  0  0  0  0  0  0  0
   47.6176   57.7058   27.1182 N   0  0  0  0  0  0  0  0  0  0  0  0
   48.6022   58.4019   29.3344 C   0  0  0  0  0  0  0  0  0  0  0  0
   47.2828   58.8723   30.0346 C   0  0  1  0  0  0  0  0  0  0  0  0
   46.2768   57.8792   30.3939 O   0  0  0  0  0  0  0  0  0  0  0  0
   47.4386   59.7472   31.3098 C   0  0  1  0  0  0  0  0  0  0  0  0
   48.0020   61.0567   31.1581 O   0  0  0  0  0  0  0  0  0  0  0  0
   46.0957   59.5805   32.0862 C   0  0  1  0  0  0  0  0  0  0  0  0
   45.2235   60.6837   32.1435 O   0  0  0  0  0  0  0  0  0  0  0  0
   45.5643   58.2440   31.5588 C   0  0  2  0  0  0  0  0  0  0  0  0
   50.6560   53.9916   30.0648 O   0  0  0  0  0  0  0  0  0  0  0  0
   48.6536   55.5355   35.1095 N   0  0  0  0  0  0  0  0  0  0  0  0
   49.0453   56.5781   34.2619 C   0  0  0  0  0  0  0  0  0  0  0  0
   48.0723   57.1954   33.3635 N   0  0  0  0  0  0  0  0  0  0  0  0
   46.7751   56.7569   33.3499 C   0  0  0  0  0  0  0  0  0  0  0  0
   46.3896   55.7059   34.2048 C   0  0  0  0  0  0  0  0  0  0  0  0
   47.3600   55.0907   35.0994 C   0  0  0  0  0  0  0  0  0  0  0  0
   46.9612   53.9993   35.9890 N   0  0  0  0  0  0  0  0  0  0  0  0
   44.9873   55.4467   33.9871 N   0  0  0  0  0  0  0  0  0  0  0  0
   44.5319   56.3459   32.9943 C   0  0  0  0  0  0  0  0  0  0  0  0
   45.6236   57.1667   32.5887 N   0  0  0  0  0  0  0  0  0  0  0  0
  2  1  1  1  0  0  0
  2  3  1  0  0  0  0
  2  5  1  0  0  0  0
  3  4  1  0  0  0  0
  3 17  1  0  0  0  0
  5  6  1  0  0  0  0
  7  6  1  6  0  0  0
  7  8  1  0  0  0  0
  7  9  1  0  0  0  0
 10  9  1  1  0  0  0
 10 11  1  0  0  0  0
 10 12  1  0  0  0  0
 11 16  1  0  0  0  0
 12 13  1  6  0  0  0
 12 14  1  0  0  0  0
 14 15  1  6  0  0  0
 14 16  1  0  0  0  0
 16 27  1  1  0  0  0
 18 19  2  0  0  0  0
 18 23  1  0  0  0  0
 19 20  1  0  0  0  0
 20 21  2  0  0  0  0
 21 22  1  0  0  0  0
 21 27  1  0  0  0  0
 22 23  2  0  0  0  0
 22 25  1  0  0  0  0
 23 24  1  0  0  0  0
 25 26  2  0  0  0  0
 26 27  1  0  0  0  0
M  END
>  <CHROM.1>
178.60510417,66.85727463,-73.53670872,-68.52476431,-174.16246752,42.04587619
69.60134289,47.84138244,56.75757895,31.11231213,-0.45900150,-0.93823724,2.25313124

>  <Name>
ligand

>  <RI>
0

>  <Rbt.Current_Directory>
/home/itssahil/PROJECTS/Mol_Feturizer/New_Systems/rnas/3GX2

>  <Rbt.Executable>
rbdock ($Id: //depot/dev/client3/rdock/2013.1/src/exe/rbdock.cxx#4 $)

>  <Rbt.Library>
libRbt.so (2013.1, Build901 2013/11/27)

>  <Rbt.Parameter_File>
/export/apps/rDock/src/rDock_2013.1_src/data/scripts/dock_solv.prm

>  <Rbt.Receptor>
prm/pocket_docking_4.prm

>  <SCORE>
-12.7264

>  <SCORE.INTER>
-10.4306

>  <SCORE.INTER.CONST>
1

>  <SCORE.INTER.POLAR>
0

>  <SCORE.INTER.ROT>
7

>  <SCORE.INTER.SOLV>
14.8227

>  <SCORE.INTER.VDW>
-20.1613

>  <SCORE.INTER.norm>
-0.38632

>  <SCORE.INTRA>
-2.29576

>  <SCORE.INTRA.DIHEDRAL>
-7.0563

>  <SCORE.INTRA.DIHEDRAL.0>
13.9704

>  <SCORE.INTRA.POLAR>
0

>  <SCORE.INTRA.POLAR.0>
0

>  <SCORE.INTRA.REPUL>
0

>  <SCORE.INTRA.REPUL.0>
0

>  <SCORE.INTRA.SOLV>
3.04624

>  <SCORE.INTRA.SOLV.lig_0>
-70.9758

>  <SCORE.INTRA.VDW>
-0.290736

>  <SCORE.INTRA.VDW.0>
-2.70686

>  <SCORE.INTRA.norm>
-0.0850283

>  <SCORE.RESTR>
0

>  <SCORE.RESTR.CAVITY>
0

>  <SCORE.RESTR.norm>
0

>  <SCORE.SYSTEM>
0

>  <SCORE.SYSTEM.CONST>
0

>  <SCORE.SYSTEM.DIHEDRAL>
0

>  <SCORE.SYSTEM.SOLV>
0

>  <SCORE.SYSTEM.norm>
0

>  <SCORE.heavy>
27

>  <SCORE.norm>
-0.471348

>  <RMSD>
5.271

$$$$
ligand
 OpenBabel11021811473D
libRbt.so/2013.1/901 2013/11/27
 27 29  0  0  0  0  0  0  0  0999 V2000
   48.4227   53.9917   28.3536 N   0  0  0  0  0  0  0  0  0  0  0  0
   49.7038   54.2129   27.6866 C   0  0  2  0  0  0  0  0  0  0  0  0
   50.9209   53.9785   28.5838 C   0  0  0  0  0  0  0  0  0  0  0  0
   50.7575   53.8960   29.7557 O   0  0  0  0  0  0  0  0  0  0  0  0
   49.7923   55.5278   26.8839 C   0  0  0  0  0  0  0  0  0  0  0  0
   49.7762   56.8860   27.6390 C   0  0  0  0  0  0  0  0  0  0  0  0
   48.3987   57.3284   28.2004 C   0  0  2  0  0  0  0  0  0  0  0  0
   47.4293   57.6403   27.1502 N   0  0  0  0  0  0  0  0  0  0  0  0
   48.5329   58.4600   29.2657 C   0  0  0  0  0  0  0  0  0  0  0  0
   47.2450   58.9329   30.0207 C   0  0  1  0  0  0  0  0  0  0  0  0
   46.2480   57.9430   30.4124 O   0  0  0  0  0  0  0  0  0  0  0  0
   47.4562   59.7976   31.2949 C   0  0  1  0  0  0  0  0  0  0  0  0
   48.0212   61.1048   31.1304 O   0  0  0  0  0  0  0  0  0  0  0  0
   46.1440   59.6329   32.1226 C   0  0  1  0  0  0  0  0  0  0  0  0
   45.2815   60.7406   32.2221 O   0  0  0  0  0  0  0  0  0  0  0  0
   45.5842   58.3034   31.6071 C   0  0  2  0  0  0  0  0  0  0  0  0
   52.0726   53.3999   28.0142 O   0  0  0  0  0  0  0  0  0  0  0  0
   48.7635   55.6433   35.1147 N   0  0  0  0  0  0  0  0  0  0  0  0
   49.1230   56.7037   34.2750 C   0  0  0  0  0  0  0  0  0  0  0  0
   48.1290   57.3038   33.3879 N   0  0  0  0  0  0  0  0  0  0  0  0
   46.8437   56.8316   33.3772 C   0  0  0  0  0  0  0  0  0  0  0  0
   46.4907   55.7628   34.2240 C   0  0  0  0  0  0  0  0  0  0  0  0
   47.4820   55.1647   35.1073 C   0  0  0  0  0  0  0  0  0  0  0  0
   47.1170   54.0549   35.9884 N   0  0  0  0  0  0  0  0  0  0  0  0
   45.0945   55.4690   34.0114 N   0  0  0  0  0  0  0  0  0  0  0  0
   44.6100   56.3653   33.0299 C   0  0  0  0  0  0  0  0  0  0  0  0
   45.6775   57.2182   32.6262 N   0  0  0  0  0  0  0  0  0  0  0  0
  2  1  1  1  0  0  0
  2  3  1  0  0  0  0
  2  5  1  0  0  0  0
  3  4  1  0  0  0  0
  3 17  1  0  0  0  0
  5  6  1  0  0  0  0
  7  6  1  6  0  0  0
  7  8  1  0  0  0  0
  7  9  1  0  0  0  0
 10  9  1  1  0  0  0
 10 11  1  0  0  0  0
 10 12  1  0  0  0  0
 11 16  1  0  0  0  0
 12 13  1  6  0  0  0
 12 14  1  0  0  0  0
 14 15  1  6  0  0  0
 14 16  1  0  0  0  0
 16 27  1  1  0  0  0
 18 19  2  0  0  0  0
 18 23  1  0  0  0  0
 19 20  1  0  0  0  0
 20 21  2  0  0  0  0
 21 22  1  0  0  0  0
 21 27  1  0  0  0  0
 22 23  2  0  0  0  0
 22 25  1  0  0  0  0
 23 24  1  0  0  0  0
 25 26  2  0  0  0  0
 26 27  1  0  0  0  0
M  END
>  <CHROM.1>
-13.95058260,67.47249862,-74.51275673,-66.97138688,-174.77391580,38.56075365
72.28021416,47.85958440,56.77216106,31.08931430,-0.44856336,-0.96261442,2.21142257

>  <Name>
ligand

>  <RI>
0

>  <Rbt.Current_Directory>
/home/itssahil/PROJECTS/Mol_Feturizer/New_Systems/rnas/3GX2

>  <Rbt.Executable>
rbdock ($Id: //depot/dev/client3/rdock/2013.1/src/exe/rbdock.cxx#4 $)

>  <Rbt.Library>
libRbt.so (2013.1, Build901 2013/11/27)

>  <Rbt.Parameter_File>
/export/apps/rDock/src/rDock_2013.1_src/data/scripts/dock_solv.prm

>  <Rbt.Receptor>
prm/pocket_docking_4.prm

>  <SCORE>
-12.7546

>  <SCORE.INTER>
-10.5405

>  <SCORE.INTER.CONST>
1

>  <SCORE.INTER.POLAR>
0

>  <SCORE.INTER.ROT>
7

>  <SCORE.INTER.SOLV>
14.925

>  <SCORE.INTER.VDW>
-20.2687

>  <SCORE.INTER.norm>
-0.39039

>  <SCORE.INTRA>
-2.21893

>  <SCORE.INTRA.DIHEDRAL>
-6.55574

>  <SCORE.INTRA.DIHEDRAL.0>
13.9704

>  <SCORE.INTRA.POLAR>
0

>  <SCORE.INTRA.POLAR.0>
0

>  <SCORE.INTRA.REPUL>
0

>  <SCORE.INTRA.REPUL.0>
0

>  <SCORE.INTRA.SOLV>
2.92131

>  <SCORE.INTRA.SOLV.lig_0>
-70.9758

>  <SCORE.INTRA.VDW>
-0.40171

>  <SCORE.INTRA.VDW.0>
-2.70686

>  <SCORE.INTRA.norm>
-0.0821824

>  <SCORE.RESTR>
0.00483058

>  <SCORE.RESTR.CAVITY>
0.00483058

>  <SCORE.RESTR.norm>
0.00017891

>  <SCORE.SYSTEM>
0

>  <SCORE.SYSTEM.CONST>
0

>  <SCORE.SYSTEM.DIHEDRAL>
0

>  <SCORE.SYSTEM.SOLV>
0

>  <SCORE.SYSTEM.norm>
0

>  <SCORE.heavy>
27

>  <SCORE.norm>
-0.472394

>  <RMSD>
5.274

$$$$
ligand
 OpenBabel11021811473D
libRbt.so/2013.1/901 2013/11/27
 27 29  0  0  0  0  0  0  0  0999 V2000
   48.5242   59.3861   32.1654 N   0  0  0  0  0  0  0  0  0  0  0  0
   48.5163   58.0990   31.4737 C   0  0  2  0  0  0  0  0  0  0  0  0
   48.5880   58.2114   29.9494 C   0  0  0  0  0  0  0  0  0  0  0  0
   49.2060   57.3980   29.3466 O   0  0  0  0  0  0  0  0  0  0  0  0
   47.4267   57.1176   31.9541 C   0  0  0  0  0  0  0  0  0  0  0  0
   45.9323   57.5365   31.8736 C   0  0  0  0  0  0  0  0  0  0  0  0
   44.9014   56.4153   32.1710 C   0  0  2  0  0  0  0  0  0  0  0  0
   43.5190   56.8397   31.9498 N   0  0  0  0  0  0  0  0  0  0  0  0
   45.1260   55.7650   33.5709 C   0  0  0  0  0  0  0  0  0  0  0  0
   45.9976   54.4671   33.6615 C   0  0  1  0  0  0  0  0  0  0  0  0
   46.5076   53.8674   32.4338 O   0  0  0  0  0  0  0  0  0  0  0  0
   47.2265   54.5121   34.6122 C   0  0  1  0  0  0  0  0  0  0  0  0
   46.9797   54.6246   36.0199 O   0  0  0  0  0  0  0  0  0  0  0  0
   48.1855   53.3963   34.0933 C   0  0  1  0  0  0  0  0  0  0  0  0
   48.3495   52.2443   34.8851 O   0  0  0  0  0  0  0  0  0  0  0  0
   47.7558   53.2344   32.6318 C   0  0  2  0  0  0  0  0  0  0  0  0
   47.5779   58.9321   29.2817 O   0  0  0  0  0  0  0  0  0  0  0  0
   50.3154   52.5179   27.8966 N   0  0  0  0  0  0  0  0  0  0  0  0
   49.3197   51.7096   28.4570 C   0  0  0  0  0  0  0  0  0  0  0  0
   48.7381   52.0569   29.7517 N   0  0  0  0  0  0  0  0  0  0  0  0
   49.1644   53.1743   30.4187 C   0  0  0  0  0  0  0  0  0  0  0  0
   50.1683   53.9812   29.8485 C   0  0  0  0  0  0  0  0  0  0  0  0
   50.7480   53.6341   28.5586 C   0  0  0  0  0  0  0  0  0  0  0  0
   51.7904   54.4717   27.9642 N   0  0  0  0  0  0  0  0  0  0  0  0
   50.4246   55.0769   30.7511 N   0  0  0  0  0  0  0  0  0  0  0  0
   49.5711   54.9233   31.8689 C   0  0  0  0  0  0  0  0  0  0  0  0
   48.7817   53.7522   31.6808 N   0  0  0  0  0  0  0  0  0  0  0  0
  2  1  1  1  0  0  0
  2  3  1  0  0  0  0
  2  5  1  0  0  0  0
  3  4  1  0  0  0  0
  3 17  1  0  0  0  0
  5  6  1  0  0  0  0
  7  6  1  1  0  0  0
  7  8  1  0  0  0  0
  7  9  1  0  0  0  0
 10  9  1  6  0  0  0
 10 11  1  0  0  0  0
 10 12  1  0  0  0  0
 11 16  1  0  0  0  0
 12 13  1  1  0  0  0
 12 14  1  0  0  0  0
 14 15  1  1  0  0  0
 14 16  1  0  0  0  0
 16 27  1  6  0  0  0
 18 19  2  0  0  0  0
 18 23  1  0  0  0  0
 19 20  1  0  0  0  0
 20 21  2  0  0  0  0
 21 22  1  0  0  0  0
 21 27  1  0  0  0  0
 22 23  2  0  0  0  0
 22 25  1  0  0  0  0
 23 24  1  0  0  0  0
 25 26  2  0  0  0  0
 26 27  1  0  0  0  0
M  END
>  <CHROM.1>
143.77989931,58.59711746,170.99102885,-174.32165104,-94.21475578,-3.37601797
-95.64723846,48.08298328,55.13169606,31.50107543,3.09992464,-0.87981305,2.64295285

>  <Name>
ligand

>  <RI>
0

>  <Rbt.Current_Directory>
/home/itssahil/PROJECTS/Mol_Feturizer/New_Systems/rnas/3GX2

>  <Rbt.Executable>
rbdock ($Id: //depot/dev/client3/rdock/2013.1/src/exe/rbdock.cxx#4 $)

>  <Rbt.Library>
libRbt.so (2013.1, Build901 2013/11/27)

>  <Rbt.Parameter_File>
/export/apps/rDock/src/rDock_2013.1_src/data/scripts/dock_solv.prm

>  <Rbt.Receptor>
prm/pocket_docking_5.prm

>  <SCORE>
-5.42725

>  <SCORE.INTER>
-4.65385

>  <SCORE.INTER.CONST>
1

>  <SCORE.INTER.POLAR>
0

>  <SCORE.INTER.ROT>
7

>  <SCORE.INTER.SOLV>
18.7263

>  <SCORE.INTER.VDW>
-17.6113

>  <SCORE.INTER.norm>
-0.172365

>  <SCORE.INTRA>
-0.773408

>  <SCORE.INTRA.DIHEDRAL>
0.243296

>  <SCORE.INTRA.DIHEDRAL.0>
13.9704

>  <SCORE.INTRA.POLAR>
0

>  <SCORE.INTRA.POLAR.0>
0

>  <SCORE.INTRA.REPUL>
0

>  <SCORE.INTRA.REPUL.0>
0

>  <SCORE.INTRA.SOLV>
0.225498

>  <SCORE.INTRA.SOLV.lig_0>
-70.9758

>  <SCORE.INTRA.VDW>
-1.00781

>  <SCORE.INTRA.VDW.0>
-2.70686

>  <SCORE.INTRA.norm>
-0.0286447

>  <SCORE.RESTR>
0

>  <SCORE.RESTR.CAVITY>
0

>  <SCORE.RESTR.norm>
0

>  <SCORE.SYSTEM>
0

>  <SCORE.SYSTEM.CONST>
0

>  <SCORE.SYSTEM.DIHEDRAL>
0

>  <SCORE.SYSTEM.SOLV>
0

>  <SCORE.SYSTEM.norm>
0

>  <SCORE.heavy>
27

>  <SCORE.norm>
-0.201009

>  <RMSD>
5.284

$$$$
ligand
 OpenBabel11021811473D
libRbt.so/2013.1/901 2013/11/27
 27 29  0  0  0  0  0  0  0  0999 V2000
   48.5185   53.3598   30.8212 N   0  0  0  0  0  0  0  0  0  0  0  0
   48.4762   54.5357   31.6876 C   0  0  2  0  0  0  0  0  0  0  0  0
   49.7467   55.3871   31.6433 C   0  0  0  0  0  0  0  0  0  0  0  0
   50.1152   55.8069   30.5969 O   0  0  0  0  0  0  0  0  0  0  0  0
   47.9876   54.2583   33.1248 C   0  0  0  0  0  0  0  0  0  0  0  0
   46.6190   53.5554   33.3438 C   0  0  0  0  0  0  0  0  0  0  0  0
   46.1143   53.5056   34.8105 C   0  0  2  0  0  0  0  0  0  0  0  0
   47.0762   52.8875   35.7230 N   0  0  0  0  0  0  0  0  0  0  0  0
   44.6842   52.8923   34.9207 C   0  0  0  0  0  0  0  0  0  0  0  0
   43.5286   53.5338   34.0808 C   0  0  1  0  0  0  0  0  0  0  0  0
   43.4860   54.9831   33.9228 O   0  0  0  0  0  0  0  0  0  0  0  0
   43.3136   52.9794   32.6448 C   0  0  1  0  0  0  0  0  0  0  0  0
   42.8616   51.6255   32.5108 O   0  0  0  0  0  0  0  0  0  0  0  0
   42.5647   54.1125   31.8772 C   0  0  1  0  0  0  0  0  0  0  0  0
   41.2168   53.8990   31.5330 O   0  0  0  0  0  0  0  0  0  0  0  0
   42.9341   55.3646   32.6787 C   0  0  2  0  0  0  0  0  0  0  0  0
   50.1578   56.0405   32.8223 O   0  0  0  0  0  0  0  0  0  0  0  0
   47.6492   58.0579   32.7111 N   0  0  0  0  0  0  0  0  0  0  0  0
   47.1201   57.2554   33.7284 C   0  0  0  0  0  0  0  0  0  0  0  0
   45.8260   56.6018   33.5463 N   0  0  0  0  0  0  0  0  0  0  0  0
   45.1289   56.7714   32.3798 C   0  0  0  0  0  0  0  0  0  0  0  0
   45.6677   57.5822   31.3618 C   0  0  0  0  0  0  0  0  0  0  0  0
   46.9571   58.2338   31.5444 C   0  0  0  0  0  0  0  0  0  0  0  0
   47.5189   59.0758   30.4875 N   0  0  0  0  0  0  0  0  0  0  0  0
   44.7379   57.5884   30.2590 N   0  0  0  0  0  0  0  0  0  0  0  0
   43.6353   56.7789   30.6202 C   0  0  0  0  0  0  0  0  0  0  0  0
   43.8596   56.2625   31.9290 N   0  0  0  0  0  0  0  0  0  0  0  0
  2  1  1  1  0  0  0
  2  3  1  0  0  0  0
  2  5  1  0  0  0  0
  3  4  1  0  0  0  0
  3 17  1  0  0  0  0
  5  6  1  0  0  0  0
  7  6  1  6  0  0  0
  7  8  1  0  0  0  0
  7  9  1  0  0  0  0
 10  9  1  6  0  0  0
 10 11  1  0  0  0  0
 10 12  1  0  0  0  0
 11 16  1  0  0  0  0
 12 13  1  1  0  0  0
 12 14  1  0  0  0  0
 14 15  1  1  0  0  0
 14 16  1  0  0  0  0
 16 27  1  6  0  0  0
 18 19  2  0  0  0  0
 18 23  1  0  0  0  0
 19 20  1  0  0  0  0
 20 21  2  0  0  0  0
 21 22  1  0  0  0  0
 21 27  1  0  0  0  0
 22 23  2  0  0  0  0
 22 25  1  0  0  0  0
 23 24  1  0  0  0  0
 25 26  2  0  0  0  0
 26 27  1  0  0  0  0
M  END
>  <CHROM.1>
56.46910361,-54.50396441,-171.33813271,-55.57972069,-55.54127988,-38.09928846
-3.15775104,45.84094837,55.23728412,32.49733895,-0.48937489,0.07359279,2.61831306

>  <Name>
ligand

>  <RI>
0

>  <Rbt.Current_Directory>
/home/itssahil/PROJECTS/Mol_Feturizer/New_Systems/rnas/3GX2

>  <Rbt.Executable>
rbdock ($Id: //depot/dev/client3/rdock/2013.1/src/exe/rbdock.cxx#4 $)

>  <Rbt.Library>
libRbt.so (2013.1, Build901 2013/11/27)

>  <Rbt.Parameter_File>
/export/apps/rDock/src/rDock_2013.1_src/data/scripts/dock_solv.prm

>  <Rbt.Receptor>
prm/pocket_docking_6.prm

>  <SCORE>
-7.95972

>  <SCORE.INTER>
-2.87128

>  <SCORE.INTER.CONST>
1

>  <SCORE.INTER.POLAR>
0

>  <SCORE.INTER.ROT>
7

>  <SCORE.INTER.SOLV>
13.8334

>  <SCORE.INTER.VDW>
-14.792

>  <SCORE.INTER.norm>
-0.106344

>  <SCORE.INTRA>
-5.08947

>  <SCORE.INTRA.DIHEDRAL>
-7.19461

>  <SCORE.INTRA.DIHEDRAL.0>
13.9704

>  <SCORE.INTRA.POLAR>
0

>  <SCORE.INTRA.POLAR.0>
0

>  <SCORE.INTRA.REPUL>
0

>  <SCORE.INTRA.REPUL.0>
0

>  <SCORE.INTRA.SOLV>
0.643242

>  <SCORE.INTRA.SOLV.lig_0>
-70.9758

>  <SCORE.INTRA.VDW>
-1.81379

>  <SCORE.INTRA.VDW.0>
-2.70686

>  <SCORE.INTRA.norm>
-0.188499

>  <SCORE.RESTR>
0.00102763

>  <SCORE.RESTR.CAVITY>
0.00102763

>  <SCORE.RESTR.norm>
3.80605e-05

>  <SCORE.SYSTEM>
0

>  <SCORE.SYSTEM.CONST>
0

>  <SCORE.SYSTEM.DIHEDRAL>
0

>  <SCORE.SYSTEM.SOLV>
0

>  <SCORE.SYSTEM.norm>
0

>  <SCORE.heavy>
27

>  <SCORE.norm>
-0.294805

>  <RMSD>
5.291

$$$$
ligand
 OpenBabel11021811473D
libRbt.so/2013.1/901 2013/11/27
 27 29  0  0  0  0  0  0  0  0999 V2000
   52.5970   55.7054   27.5315 N   0  0  0  0  0  0  0  0  0  0  0  0
   51.4824   55.0166   28.1782 C   0  0  2  0  0  0  0  0  0  0  0  0
   51.0128   53.7622   27.4384 C   0  0  0  0  0  0  0  0  0  0  0  0
   51.2303   53.6713   26.2760 O   0  0  0  0  0  0  0  0  0  0  0  0
   50.3181   55.9356   28.6033 C   0  0  0  0  0  0  0  0  0  0  0  0
   49.6591   56.8699   27.5506 C   0  0  0  0  0  0  0  0  0  0  0  0
   48.3339   57.5487   27.9881 C   0  0  2  0  0  0  0  0  0  0  0  0
   47.6461   58.2190   26.8846 N   0  0  0  0  0  0  0  0  0  0  0  0
   48.5252   58.4640   29.2367 C   0  0  0  0  0  0  0  0  0  0  0  0
   47.2524   58.9632   30.0002 C   0  0  1  0  0  0  0  0  0  0  0  0
   46.2235   57.9986   30.3718 O   0  0  0  0  0  0  0  0  0  0  0  0
   47.4900   59.7953   31.2914 C   0  0  1  0  0  0  0  0  0  0  0  0
   48.0970   61.0867   31.1531 O   0  0  0  0  0  0  0  0  0  0  0  0
   46.1721   59.6569   32.1149 C   0  0  1  0  0  0  0  0  0  0  0  0
   45.3457   60.7897   32.2358 O   0  0  0  0  0  0  0  0  0  0  0  0
   45.5702   58.3566   31.5730 C   0  0  2  0  0  0  0  0  0  0  0  0
   50.7917   52.5870   28.1840 O   0  0  0  0  0  0  0  0  0  0  0  0
   48.6508   55.5460   35.0511 N   0  0  0  0  0  0  0  0  0  0  0  0
   49.0443   56.6136   34.2362 C   0  0  0  0  0  0  0  0  0  0  0  0
   48.0735   57.2567   33.3535 N   0  0  0  0  0  0  0  0  0  0  0  0
   46.7768   56.8177   33.3228 C   0  0  0  0  0  0  0  0  0  0  0  0
   46.3896   55.7414   34.1448 C   0  0  0  0  0  0  0  0  0  0  0  0
   47.3578   55.1006   35.0237 C   0  0  0  0  0  0  0  0  0  0  0  0
   46.9571   53.9829   35.8791 N   0  0  0  0  0  0  0  0  0  0  0  0
   44.9882   55.4877   33.9150 N   0  0  0  0  0  0  0  0  0  0  0  0
   44.5351   56.4157   32.9481 C   0  0  0  0  0  0  0  0  0  0  0  0
   45.6273   57.2491   32.5705 N   0  0  0  0  0  0  0  0  0  0  0  0
  2  1  1  6  0  0  0
  2  3  1  0  0  0  0
  2  5  1  0  0  0  0
  3  4  1  0  0  0  0
  3 17  1  0  0  0  0
  5  6  1  0  0  0  0
  7  6  1  6  0  0  0
  7  8  1  0  0  0  0
  7  9  1  0  0  0  0
 10  9  1  1  0  0  0
 10 11  1  0  0  0  0
 10 12  1  0  0  0  0
 11 16  1  0  0  0  0
 12 13  1  6  0  0  0
 12 14  1  0  0  0  0
 14 15  1  6  0  0  0
 14 16  1  0  0  0  0
 16 27  1  1  0  0  0
 18 19  2  0  0  0  0
 18 23  1  0  0  0  0
 19 20  1  0  0  0  0
 20 21  2  0  0  0  0
 21 22  1  0  0  0  0
 21 27  1  0  0  0  0
 22 23  2  0  0  0  0
 22 25  1  0  0  0  0
 23 24  1  0  0  0  0
 25 26  2  0  0  0  0
 26 27  1  0  0  0  0
M  END
>  <CHROM.1>
-23.85581747,54.07653955,168.63729521,-169.83231737,-166.37450155,49.03484520
72.86148881,48.04308288,56.85381979,30.90883480,-0.36233626,-0.91710460,2.33294887

>  <Name>
ligand

>  <RI>
0

>  <Rbt.Current_Directory>
/home/itssahil/PROJECTS/Mol_Feturizer/New_Systems/rnas/3GX2

>  <Rbt.Executable>
rbdock ($Id: //depot/dev/client3/rdock/2013.1/src/exe/rbdock.cxx#4 $)

>  <Rbt.Library>
libRbt.so (2013.1, Build901 2013/11/27)

>  <Rbt.Parameter_File>
/export/apps/rDock/src/rDock_2013.1_src/data/scripts/dock_solv.prm

>  <Rbt.Receptor>
prm/pocket_docking_7.prm

>  <SCORE>
-13.4186

>  <SCORE.INTER>
-10.1115

>  <SCORE.INTER.CONST>
1

>  <SCORE.INTER.POLAR>
0

>  <SCORE.INTER.ROT>
7

>  <SCORE.INTER.SOLV>
22.0473

>  <SCORE.INTER.VDW>
-22.3567

>  <SCORE.INTER.norm>
-0.374498

>  <SCORE.INTRA>
-3.30712

>  <SCORE.INTRA.DIHEDRAL>
-7.39466

>  <SCORE.INTRA.DIHEDRAL.0>
13.9704

>  <SCORE.INTRA.POLAR>
0

>  <SCORE.INTRA.POLAR.0>
0

>  <SCORE.INTRA.REPUL>
0

>  <SCORE.INTRA.REPUL.0>
0

>  <SCORE.INTRA.SOLV>
0.386043

>  <SCORE.INTRA.SOLV.lig_0>
-70.9758

>  <SCORE.INTRA.VDW>
0.197188

>  <SCORE.INTRA.VDW.0>
-2.70686

>  <SCORE.INTRA.norm>
-0.122486

>  <SCORE.RESTR>
0

>  <SCORE.RESTR.CAVITY>
0

>  <SCORE.RESTR.norm>
0

>  <SCORE.SYSTEM>
0

>  <SCORE.SYSTEM.CONST>
0

>  <SCORE.SYSTEM.DIHEDRAL>
0

>  <SCORE.SYSTEM.SOLV>
0

>  <SCORE.SYSTEM.norm>
0

>  <SCORE.heavy>
27

>  <SCORE.norm>
-0.496984

>  <RMSD>
5.295

$$$$
ligand
 OpenBabel11021811483D
libRbt.so/2013.1/901 2013/11/27
 27 29  0  0  0  0  0  0  0  0999 V2000
   46.0056   52.6869   25.1048 N   0  0  0  0  0  0  0  0  0  0  0  0
   47.2741   53.3521   25.3933 C   0  0  2  0  0  0  0  0  0  0  0  0
   48.5024   52.4606   25.1987 C   0  0  0  0  0  0  0  0  0  0  0  0
   49.5754   52.9658   25.1772 O   0  0  0  0  0  0  0  0  0  0  0  0
   47.3025   54.1334   26.7236 C   0  0  0  0  0  0  0  0  0  0  0  0
   46.5123   55.4663   26.8435 C   0  0  0  0  0  0  0  0  0  0  0  0
   46.5378   56.1413   28.2407 C   0  0  2  0  0  0  0  0  0  0  0  0
   45.7063   55.4470   29.2237 N   0  0  0  0  0  0  0  0  0  0  0  0
   46.2438   57.6711   28.1610 C   0  0  0  0  0  0  0  0  0  0  0  0
   46.3996   58.5313   29.4603 C   0  0  1  0  0  0  0  0  0  0  0  0
   45.4289   58.3728   30.5372 O   0  0  0  0  0  0  0  0  0  0  0  0
   47.7809   58.4843   30.1715 C   0  0  1  0  0  0  0  0  0  0  0  0
   48.9067   59.0463   29.4847 O   0  0  0  0  0  0  0  0  0  0  0  0
   47.4964   58.9107   31.6451 C   0  0  1  0  0  0  0  0  0  0  0  0
   47.9714   60.1642   32.0742 O   0  0  0  0  0  0  0  0  0  0  0  0
   46.0078   58.5882   31.8086 C   0  0  2  0  0  0  0  0  0  0  0  0
   48.3991   51.0947   25.5293 O   0  0  0  0  0  0  0  0  0  0  0  0
   42.6485   54.5785   33.2662 N   0  0  0  0  0  0  0  0  0  0  0  0
   42.4461   55.5381   32.2678 C   0  0  0  0  0  0  0  0  0  0  0  0
   43.4660   56.5522   32.0101 N   0  0  0  0  0  0  0  0  0  0  0  0
   44.6226   56.5650   32.7431 C   0  0  0  0  0  0  0  0  0  0  0  0
   44.8176   55.5967   33.7474 C   0  0  0  0  0  0  0  0  0  0  0  0
   43.8003   54.5869   34.0042 C   0  0  0  0  0  0  0  0  0  0  0  0
   44.0015   53.5796   35.0464 N   0  0  0  0  0  0  0  0  0  0  0  0
   46.1023   55.8400   34.3567 N   0  0  0  0  0  0  0  0  0  0  0  0
   46.6781   56.9618   33.7151 C   0  0  0  0  0  0  0  0  0  0  0  0
   45.7781   57.4237   32.7118 N   0  0  0  0  0  0  0  0  0  0  0  0
  2  1  1  1  0  0  0
  2  3  1  0  0  0  0
  2  5  1  0  0  0  0
  3  4  1  0  0  0  0
  3 17  1  0  0  0  0
  5  6  1  0  0  0  0
  7  6  1  6  0  0  0
  7  8  1  0  0  0  0
  7  9  1  0  0  0  0
 10  9  1  6  0  0  0
 10 11  1  0  0  0  0
 10 12  1  0  0  0  0
 11 16  1  0  0  0  0
 12 13  1  6  0  0  0
 12 14  1  0  0  0  0
 14 15  1  6  0  0  0
 14 16  1  0  0  0  0
 16 27  1  1  0  0  0
 18 19  2  0  0  0  0
 18 23  1  0  0  0  0
 19 20  1  0  0  0  0
 20 21  2  0  0  0  0
 21 22  1  0  0  0  0
 21 27  1  0  0  0  0
 22 23  2  0  0  0  0
 22 25  1  0  0  0  0
 23 24  1  0  0  0  0
 25 26  2  0  0  0  0
 26 27  1  0  0  0  0
M  END
>  <CHROM.1>
166.87024371,-72.30971906,176.84457577,-73.53612594,-172.84111907,-70.88868821
-33.77270750,46.24148955,55.95338374,30.06912413,1.00747567,-0.92753544,-2.47543004

>  <Name>
ligand

>  <RI>
0

>  <Rbt.Current_Directory>
/home/itssahil/PROJECTS/Mol_Feturizer/New_Systems/rnas/3GX2

>  <Rbt.Executable>
rbdock ($Id: //depot/dev/client3/rdock/2013.1/src/exe/rbdock.cxx#4 $)

>  <Rbt.Library>
libRbt.so (2013.1, Build901 2013/11/27)

>  <Rbt.Parameter_File>
/export/apps/rDock/src/rDock_2013.1_src/data/scripts/dock_solv.prm

>  <Rbt.Receptor>
prm/pocket_docking_7.prm

>  <SCORE>
-9.36593

>  <SCORE.INTER>
-6.89255

>  <SCORE.INTER.CONST>
1

>  <SCORE.INTER.POLAR>
0

>  <SCORE.INTER.ROT>
7

>  <SCORE.INTER.SOLV>
11.9354

>  <SCORE.INTER.VDW>
-16.8401

>  <SCORE.INTER.norm>
-0.255279

>  <SCORE.INTRA>
-2.47338

>  <SCORE.INTRA.DIHEDRAL>
-7.3575

>  <SCORE.INTRA.DIHEDRAL.0>
13.9704

>  <SCORE.INTRA.POLAR>
0

>  <SCORE.INTRA.POLAR.0>
0

>  <SCORE.INTRA.REPUL>
0

>  <SCORE.INTRA.REPUL.0>
0

>  <SCORE.INTRA.SOLV>
2.25537

>  <SCORE.INTRA.SOLV.lig_0>
-70.9758

>  <SCORE.INTRA.VDW>
0.0776857

>  <SCORE.INTRA.VDW.0>
-2.70686

>  <SCORE.INTRA.norm>
-0.0916067

>  <SCORE.RESTR>
0

>  <SCORE.RESTR.CAVITY>
0

>  <SCORE.RESTR.norm>
0

>  <SCORE.SYSTEM>
0

>  <SCORE.SYSTEM.CONST>
0

>  <SCORE.SYSTEM.DIHEDRAL>
0

>  <SCORE.SYSTEM.SOLV>
0

>  <SCORE.SYSTEM.norm>
0

>  <SCORE.heavy>
27

>  <SCORE.norm>
-0.346886

>  <RMSD>
5.297

$$$$
ligand
 OpenBabel11021811473D
libRbt.so/2013.1/901 2013/11/27
 27 29  0  0  0  0  0  0  0  0999 V2000
   47.5232   53.9175   30.5697 N   0  0  0  0  0  0  0  0  0  0  0  0
   46.4642   53.6320   29.6043 C   0  0  2  0  0  0  0  0  0  0  0  0
   46.9646   53.0172   28.2955 C   0  0  0  0  0  0  0  0  0  0  0  0
   47.7570   52.1361   28.3463 O   0  0  0  0  0  0  0  0  0  0  0  0
   45.4668   54.7884   29.3831 C   0  0  0  0  0  0  0  0  0  0  0  0
   45.9952   56.1744   28.9193 C   0  0  0  0  0  0  0  0  0  0  0  0
   44.9482   57.3196   28.8915 C   0  0  2  0  0  0  0  0  0  0  0  0
   43.9059   57.1139   27.8858 N   0  0  0  0  0  0  0  0  0  0  0  0
   45.6163   58.7263   28.8023 C   0  0  0  0  0  0  0  0  0  0  0  0
   46.5501   59.1863   29.9722 C   0  0  1  0  0  0  0  0  0  0  0  0
   46.0646   59.0979   31.3447 O   0  0  0  0  0  0  0  0  0  0  0  0
   47.9726   58.5617   30.0217 C   0  0  1  0  0  0  0  0  0  0  0  0
   48.8845   58.8895   28.9652 O   0  0  0  0  0  0  0  0  0  0  0  0
   48.4354   58.7164   31.5035 C   0  0  1  0  0  0  0  0  0  0  0  0
   49.4638   59.6359   31.7826 O   0  0  0  0  0  0  0  0  0  0  0  0
   47.1092   58.8377   32.2606 C   0  0  2  0  0  0  0  0  0  0  0  0
   46.1631   53.1470   27.1439 O   0  0  0  0  0  0  0  0  0  0  0  0
   49.1572   54.6774   35.0864 N   0  0  0  0  0  0  0  0  0  0  0  0
   49.8649   55.6746   34.4056 C   0  0  0  0  0  0  0  0  0  0  0  0
   49.1436   56.7258   33.6915 N   0  0  0  0  0  0  0  0  0  0  0  0
   47.7743   56.7388   33.6882 C   0  0  0  0  0  0  0  0  0  0  0  0
   47.0698   55.7303   34.3743 C   0  0  0  0  0  0  0  0  0  0  0  0
   47.7893   54.6827   35.0851 C   0  0  0  0  0  0  0  0  0  0  0  0
   47.0591   53.6348   35.7993 N   0  0  0  0  0  0  0  0  0  0  0  0
   45.6590   55.9811   34.2077 N   0  0  0  0  0  0  0  0  0  0  0  0
   45.5186   57.1446   33.4152 C   0  0  0  0  0  0  0  0  0  0  0  0
   46.8171   57.6295   33.0851 N   0  0  0  0  0  0  0  0  0  0  0  0
  2  1  1  6  0  0  0
  2  3  1  0  0  0  0
  2  5  1  0  0  0  0
  3  4  1  0  0  0  0
  3 17  1  0  0  0  0
  5  6  1  0  0  0  0
  7  6  1  6  0  0  0
  7  8  1  0  0  0  0
  7  9  1  0  0  0  0
 10  9  1  6  0  0  0
 10 11  1  0  0  0  0
 10 12  1  0  0  0  0
 11 16  1  0  0  0  0
 12 13  1  6  0  0  0
 12 14  1  0  0  0  0
 14 15  1  6  0  0  0
 14 16  1  0  0  0  0
 16 27  1  6  0  0  0
 18 19  2  0  0  0  0
 18 23  1  0  0  0  0
 19 20  1  0  0  0  0
 20 21  2  0  0  0  0
 21 22  1  0  0  0  0
 21 27  1  0  0  0  0
 22 23  2  0  0  0  0
 22 25  1  0  0  0  0
 23 24  1  0  0  0  0
 25 26  2  0  0  0  0
 26 27  1  0  0  0  0
M  END
>  <CHROM.1>
45.40215565,57.25035562,-172.76951733,-66.45921901,-62.21493245,-50.94981210
152.21658700,47.08358761,56.35552319,31.25071029,-3.09817265,-1.26730210
-0.08951408

>  <Name>
ligand

>  <RI>
0

>  <Rbt.Current_Directory>
/home/itssahil/PROJECTS/Mol_Feturizer/New_Systems/rnas/3GX2

>  <Rbt.Executable>
rbdock ($Id: //depot/dev/client3/rdock/2013.1/src/exe/rbdock.cxx#4 $)

>  <Rbt.Library>
libRbt.so (2013.1, Build901 2013/11/27)

>  <Rbt.Parameter_File>
/export/apps/rDock/src/rDock_2013.1_src/data/scripts/dock_solv.prm

>  <Rbt.Receptor>
prm/pocket_docking_4.prm

>  <SCORE>
-11.7826

>  <SCORE.INTER>
-7.63214

>  <SCORE.INTER.CONST>
1

>  <SCORE.INTER.POLAR>
0

>  <SCORE.INTER.ROT>
7

>  <SCORE.INTER.SOLV>
18.1902

>  <SCORE.INTER.VDW>
-19.4182

>  <SCORE.INTER.norm>
-0.282672

>  <SCORE.INTRA>
-4.15041

>  <SCORE.INTRA.DIHEDRAL>
-8.46189

>  <SCORE.INTRA.DIHEDRAL.0>
13.9704

>  <SCORE.INTRA.POLAR>
0

>  <SCORE.INTRA.POLAR.0>
0

>  <SCORE.INTRA.REPUL>
0

>  <SCORE.INTRA.REPUL.0>
0

>  <SCORE.INTRA.SOLV>
0.258109

>  <SCORE.INTRA.SOLV.lig_0>
-70.9758

>  <SCORE.INTRA.VDW>
-0.0485185

>  <SCORE.INTRA.VDW.0>
-2.70686

>  <SCORE.INTRA.norm>
-0.153719

>  <SCORE.RESTR>
0

>  <SCORE.RESTR.CAVITY>
0

>  <SCORE.RESTR.norm>
0

>  <SCORE.SYSTEM>
0

>  <SCORE.SYSTEM.CONST>
0

>  <SCORE.SYSTEM.DIHEDRAL>
0

>  <SCORE.SYSTEM.SOLV>
0

>  <SCORE.SYSTEM.norm>
0

>  <SCORE.heavy>
27

>  <SCORE.norm>
-0.436391

>  <RMSD>
5.312

$$$$
ligand
 OpenBabel11021811473D
libRbt.so/2013.1/901 2013/11/27
 27 29  0  0  0  0  0  0  0  0999 V2000
   49.5030   54.5994   26.9233 N   0  0  0  0  0  0  0  0  0  0  0  0
   50.1249   54.6887   28.2425 C   0  0  2  0  0  0  0  0  0  0  0  0
   51.1451   53.5840   28.5255 C   0  0  0  0  0  0  0  0  0  0  0  0
   51.5388   53.4428   29.6354 O   0  0  0  0  0  0  0  0  0  0  0  0
   49.1355   54.9065   29.4065 C   0  0  0  0  0  0  0  0  0  0  0  0
   48.2801   56.2033   29.4492 C   0  0  0  0  0  0  0  0  0  0  0  0
   49.0743   57.5303   29.5779 C   0  0  2  0  0  0  0  0  0  0  0  0
   49.6744   57.7088   30.9000 N   0  0  0  0  0  0  0  0  0  0  0  0
   48.2401   58.7634   29.1124 C   0  0  0  0  0  0  0  0  0  0  0  0
   46.9876   59.1802   29.9548 C   0  0  1  0  0  0  0  0  0  0  0  0
   46.0297   58.1565   30.3567 O   0  0  0  0  0  0  0  0  0  0  0  0
   47.2536   59.9946   31.2517 C   0  0  1  0  0  0  0  0  0  0  0  0
   47.7873   61.3179   31.1133 O   0  0  0  0  0  0  0  0  0  0  0  0
   45.9912   59.7711   32.1407 C   0  0  1  0  0  0  0  0  0  0  0  0
   45.1173   60.8574   32.3336 O   0  0  0  0  0  0  0  0  0  0  0  0
   45.4259   58.4541   31.5995 C   0  0  2  0  0  0  0  0  0  0  0  0
   51.2220   52.4971   27.6320 O   0  0  0  0  0  0  0  0  0  0  0  0
   48.7766   55.8471   34.9853 N   0  0  0  0  0  0  0  0  0  0  0  0
   49.0637   56.9694   34.1999 C   0  0  0  0  0  0  0  0  0  0  0  0
   48.0318   57.5434   33.3393 N   0  0  0  0  0  0  0  0  0  0  0  0
   46.7815   56.9862   33.3005 C   0  0  0  0  0  0  0  0  0  0  0  0
   46.5015   55.8557   34.0928 C   0  0  0  0  0  0  0  0  0  0  0  0
   47.5306   55.2837   34.9496 C   0  0  0  0  0  0  0  0  0  0  0  0
   47.2413   54.1099   35.7741 N   0  0  0  0  0  0  0  0  0  0  0  0
   45.1286   55.4787   33.8606 N   0  0  0  0  0  0  0  0  0  0  0  0
   44.5848   56.3871   32.9222 C   0  0  0  0  0  0  0  0  0  0  0  0
   45.5922   57.3292   32.5648 N   0  0  0  0  0  0  0  0  0  0  0  0
  2  1  1  6  0  0  0
  2  3  1  0  0  0  0
  2  5  1  0  0  0  0
  3  4  1  0  0  0  0
  3 17  1  0  0  0  0
  5  6  1  0  0  0  0
  7  6  1  1  0  0  0
  7  8  1  0  0  0  0
  7  9  1  0  0  0  0
 10  9  1  1  0  0  0
 10 11  1  0  0  0  0
 10 12  1  0  0  0  0
 11 16  1  0  0  0  0
 12 13  1  6  0  0  0
 12 14  1  0  0  0  0
 14 15  1  6  0  0  0
 14 16  1  0  0  0  0
 16 27  1  1  0  0  0
 18 19  2  0  0  0  0
 18 23  1  0  0  0  0
 19 20  1  0  0  0  0
 20 21  2  0  0  0  0
 21 22  1  0  0  0  0
 21 27  1  0  0  0  0
 22 23  2  0  0  0  0
 22 25  1  0  0  0  0
 23 24  1  0  0  0  0
 25 26  2  0  0  0  0
 26 27  1  0  0  0  0
M  END
>  <CHROM.1>
-167.91130078,-62.69063410,-62.83339393,-71.14877212,67.03425652,-47.51780278
76.62444483,47.87912864,56.80500045,31.33644925,0.04784585,0.95877312,-0.83137265

>  <Name>
ligand

>  <RI>
0

>  <Rbt.Current_Directory>
/home/itssahil/PROJECTS/Mol_Feturizer/New_Systems/rnas/3GX2

>  <Rbt.Executable>
rbdock ($Id: //depot/dev/client3/rdock/2013.1/src/exe/rbdock.cxx#4 $)

>  <Rbt.Library>
libRbt.so (2013.1, Build901 2013/11/27)

>  <Rbt.Parameter_File>
/export/apps/rDock/src/rDock_2013.1_src/data/scripts/dock_solv.prm

>  <Rbt.Receptor>
prm/pocket_docking_6.prm

>  <SCORE>
-11.8866

>  <SCORE.INTER>
-8.83189

>  <SCORE.INTER.CONST>
1

>  <SCORE.INTER.POLAR>
0

>  <SCORE.INTER.ROT>
7

>  <SCORE.INTER.SOLV>
15.2421

>  <SCORE.INTER.VDW>
-19.2353

>  <SCORE.INTER.norm>
-0.327107

>  <SCORE.INTRA>
-3.05473

>  <SCORE.INTRA.DIHEDRAL>
-8.20277

>  <SCORE.INTRA.DIHEDRAL.0>
13.9704

>  <SCORE.INTRA.POLAR>
0

>  <SCORE.INTRA.POLAR.0>
0

>  <SCORE.INTRA.REPUL>
0

>  <SCORE.INTRA.REPUL.0>
0

>  <SCORE.INTRA.SOLV>
3.97562

>  <SCORE.INTRA.SOLV.lig_0>
-70.9758

>  <SCORE.INTRA.VDW>
-0.941155

>  <SCORE.INTRA.VDW.0>
-2.70686

>  <SCORE.INTRA.norm>
-0.113138

>  <SCORE.RESTR>
0

>  <SCORE.RESTR.CAVITY>
0

>  <SCORE.RESTR.norm>
0

>  <SCORE.SYSTEM>
0

>  <SCORE.SYSTEM.CONST>
0

>  <SCORE.SYSTEM.DIHEDRAL>
0

>  <SCORE.SYSTEM.SOLV>
0

>  <SCORE.SYSTEM.norm>
0

>  <SCORE.heavy>
27

>  <SCORE.norm>
-0.440245

>  <RMSD>
5.315

$$$$
ligand
 OpenBabel11021811483D
libRbt.so/2013.1/901 2013/11/27
 27 29  0  0  0  0  0  0  0  0999 V2000
   46.6796   52.8050   28.8838 N   0  0  0  0  0  0  0  0  0  0  0  0
   46.6545   54.2607   29.0072 C   0  0  2  0  0  0  0  0  0  0  0  0
   45.9716   54.7656   30.2800 C   0  0  0  0  0  0  0  0  0  0  0  0
   45.0598   54.1481   30.7207 O   0  0  0  0  0  0  0  0  0  0  0  0
   46.1887   55.0056   27.7386 C   0  0  0  0  0  0  0  0  0  0  0  0
   46.2542   56.5577   27.6970 C   0  0  0  0  0  0  0  0  0  0  0  0
   45.1814   57.3000   28.5375 C   0  0  2  0  0  0  0  0  0  0  0  0
   43.8186   57.0552   28.0656 N   0  0  0  0  0  0  0  0  0  0  0  0
   45.5089   58.8161   28.7040 C   0  0  0  0  0  0  0  0  0  0  0  0
   46.4364   59.2554   29.8869 C   0  0  1  0  0  0  0  0  0  0  0  0
   45.9239   59.1949   31.2510 O   0  0  0  0  0  0  0  0  0  0  0  0
   47.8364   58.5848   29.9671 C   0  0  1  0  0  0  0  0  0  0  0  0
   48.7773   58.8733   28.9247 O   0  0  0  0  0  0  0  0  0  0  0  0
   48.2776   58.7372   31.4558 C   0  0  1  0  0  0  0  0  0  0  0  0
   49.3307   59.6248   31.7459 O   0  0  0  0  0  0  0  0  0  0  0  0
   46.9428   58.9086   32.1878 C   0  0  2  0  0  0  0  0  0  0  0  0
   46.6971   55.6154   31.1385 O   0  0  0  0  0  0  0  0  0  0  0  0
   48.7880   54.8908   35.3406 N   0  0  0  0  0  0  0  0  0  0  0  0
   49.5380   55.8862   34.7038 C   0  0  0  0  0  0  0  0  0  0  0  0
   48.8691   56.8958   33.8863 N   0  0  0  0  0  0  0  0  0  0  0  0
   47.5075   56.8717   33.7427 C   0  0  0  0  0  0  0  0  0  0  0  0
   46.7604   55.8653   34.3855 C   0  0  0  0  0  0  0  0  0  0  0  0
   47.4278   54.8590   35.1995 C   0  0  0  0  0  0  0  0  0  0  0  0
   46.6532   53.8134   35.8689 N   0  0  0  0  0  0  0  0  0  0  0  0
   45.3687   56.0728   34.0678 N   0  0  0  0  0  0  0  0  0  0  0  0
   45.2828   57.2080   33.2280 C   0  0  0  0  0  0  0  0  0  0  0  0
   46.5964   57.7179   33.0167 N   0  0  0  0  0  0  0  0  0  0  0  0
  2  1  1  6  0  0  0
  2  3  1  0  0  0  0
  2  5  1  0  0  0  0
  3  4  1  0  0  0  0
  3 17  1  0  0  0  0
  5  6  1  0  0  0  0
  7  6  1  6  0  0  0
  7  8  1  0  0  0  0
  7  9  1  0  0  0  0
 10  9  1  6  0  0  0
 10 11  1  0  0  0  0
 10 12  1  0  0  0  0
 11 16  1  0  0  0  0
 12 13  1  6  0  0  0
 12 14  1  0  0  0  0
 14 15  1  6  0  0  0
 14 16  1  0  0  0  0
 16 27  1  6  0  0  0
 18 19  2  0  0  0  0
 18 23  1  0  0  0  0
 19 20  1  0  0  0  0
 20 21  2  0  0  0  0
 21 22  1  0  0  0  0
 21 27  1  0  0  0  0
 22 23  2  0  0  0  0
 22 25  1  0  0  0  0
 23 24  1  0  0  0  0
 25 26  2  0  0  0  0
 26 27  1  0  0  0  0
M  END
>  <CHROM.1>
-33.34116542,-173.93785251,-73.78732845,-63.77251572,-86.72783645,-71.25198717
158.25370086,46.82433070,56.67384314,31.39719697,2.20386183,-1.13229355,-0.77747321

>  <Name>
ligand

>  <RI>
0

>  <Rbt.Current_Directory>
/home/itssahil/PROJECTS/Mol_Feturizer/New_Systems/rnas/3GX2

>  <Rbt.Executable>
rbdock ($Id: //depot/dev/client3/rdock/2013.1/src/exe/rbdock.cxx#4 $)

>  <Rbt.Library>
libRbt.so (2013.1, Build901 2013/11/27)

>  <Rbt.Parameter_File>
/export/apps/rDock/src/rDock_2013.1_src/data/scripts/dock_solv.prm

>  <Rbt.Receptor>
prm/pocket_docking_8.prm

>  <SCORE>
-10.4996

>  <SCORE.INTER>
-6.66567

>  <SCORE.INTER.CONST>
1

>  <SCORE.INTER.POLAR>
0

>  <SCORE.INTER.ROT>
7

>  <SCORE.INTER.SOLV>
18.6476

>  <SCORE.INTER.VDW>
-18.9263

>  <SCORE.INTER.norm>
-0.246877

>  <SCORE.INTRA>
-3.83398

>  <SCORE.INTRA.DIHEDRAL>
-6.01251

>  <SCORE.INTRA.DIHEDRAL.0>
13.9704

>  <SCORE.INTRA.POLAR>
0

>  <SCORE.INTRA.POLAR.0>
0

>  <SCORE.INTRA.REPUL>
0

>  <SCORE.INTRA.REPUL.0>
0

>  <SCORE.INTRA.SOLV>
2.4703

>  <SCORE.INTRA.SOLV.lig_0>
-70.9758

>  <SCORE.INTRA.VDW>
-2.06287

>  <SCORE.INTRA.VDW.0>
-2.70686

>  <SCORE.INTRA.norm>
-0.141999

>  <SCORE.RESTR>
0

>  <SCORE.RESTR.CAVITY>
0

>  <SCORE.RESTR.norm>
0

>  <SCORE.SYSTEM>
0

>  <SCORE.SYSTEM.CONST>
0

>  <SCORE.SYSTEM.DIHEDRAL>
0

>  <SCORE.SYSTEM.SOLV>
0

>  <SCORE.SYSTEM.norm>
0

>  <SCORE.heavy>
27

>  <SCORE.norm>
-0.388876

>  <RMSD>
5.325

$$$$
ligand
 OpenBabel11021811483D
libRbt.so/2013.1/901 2013/11/27
 27 29  0  0  0  0  0  0  0  0999 V2000
   47.6909   52.1558   27.3017 N   0  0  0  0  0  0  0  0  0  0  0  0
   46.6075   53.1322   27.3897 C   0  0  2  0  0  0  0  0  0  0  0  0
   45.2168   52.5419   27.1472 C   0  0  0  0  0  0  0  0  0  0  0  0
   45.0451   51.8624   26.1904 O   0  0  0  0  0  0  0  0  0  0  0  0
   46.8525   54.4372   26.6036 C   0  0  0  0  0  0  0  0  0  0  0  0
   45.9795   55.6867   26.9065 C   0  0  0  0  0  0  0  0  0  0  0  0
   46.1495   56.3003   28.3218 C   0  0  2  0  0  0  0  0  0  0  0  0
   45.4249   55.5595   29.3543 N   0  0  0  0  0  0  0  0  0  0  0  0
   45.8478   57.8306   28.3402 C   0  0  0  0  0  0  0  0  0  0  0  0
   46.3215   58.6714   29.5736 C   0  0  1  0  0  0  0  0  0  0  0  0
   45.5710   58.5863   30.8212 O   0  0  0  0  0  0  0  0  0  0  0  0
   47.8073   58.5132   30.0017 C   0  0  1  0  0  0  0  0  0  0  0  0
   48.8173   58.9871   29.1014 O   0  0  0  0  0  0  0  0  0  0  0  0
   47.8509   58.9558   31.4971 C   0  0  1  0  0  0  0  0  0  0  0  0
   48.4970   60.1664   31.8100 O   0  0  0  0  0  0  0  0  0  0  0  0
   46.4026   58.7512   31.9522 C   0  0  2  0  0  0  0  0  0  0  0  0
   44.3461   52.4030   28.2465 O   0  0  0  0  0  0  0  0  0  0  0  0
   48.9572   55.1653   35.1307 N   0  0  0  0  0  0  0  0  0  0  0  0
   49.5348   56.1662   34.3412 C   0  0  0  0  0  0  0  0  0  0  0  0
   48.6869   57.0481   33.5421 N   0  0  0  0  0  0  0  0  0  0  0  0
   47.3260   56.8986   33.5651 C   0  0  0  0  0  0  0  0  0  0  0  0
   46.7529   55.8875   34.3609 C   0  0  0  0  0  0  0  0  0  0  0  0
   47.5985   55.0085   35.1564 C   0  0  0  0  0  0  0  0  0  0  0  0
   47.0049   53.9581   35.9845 N   0  0  0  0  0  0  0  0  0  0  0  0
   45.3209   55.9517   34.1990 N   0  0  0  0  0  0  0  0  0  0  0  0
   45.0357   57.0055   33.2991 C   0  0  0  0  0  0  0  0  0  0  0  0
   46.2640   57.6053   32.8970 N   0  0  0  0  0  0  0  0  0  0  0  0
  2  1  1  6  0  0  0
  2  3  1  0  0  0  0
  2  5  1  0  0  0  0
  3  4  1  0  0  0  0
  3 17  1  0  0  0  0
  5  6  1  0  0  0  0
  7  6  1  6  0  0  0
  7  8  1  0  0  0  0
  7  9  1  0  0  0  0
 10  9  1  6  0  0  0
 10 11  1  0  0  0  0
 10 12  1  0  0  0  0
 11 16  1  0  0  0  0
 12 13  1  6  0  0  0
 12 14  1  0  0  0  0
 14 15  1  6  0  0  0
 14 16  1  0  0  0  0
 16 27  1  1  0  0  0
 18 19  2  0  0  0  0
 18 23  1  0  0  0  0
 19 20  1  0  0  0  0
 20 21  2  0  0  0  0
 21 22  1  0  0  0  0
 21 27  1  0  0  0  0
 22 23  2  0  0  0  0
 22 25  1  0  0  0  0
 23 24  1  0  0  0  0
 25 26  2  0  0  0  0
 26 27  1  0  0  0  0
M  END
>  <CHROM.1>
-49.59079179,-163.93507012,65.43972686,-78.86552471,-164.33079131,-76.43184407
135.38037211,46.75585363,56.11468628,30.74750102,2.74998283,-1.32678720,-0.88142077

>  <Name>
ligand

>  <RI>
0

>  <Rbt.Current_Directory>
/home/itssahil/PROJECTS/Mol_Feturizer/New_Systems/rnas/3GX2

>  <Rbt.Executable>
rbdock ($Id: //depot/dev/client3/rdock/2013.1/src/exe/rbdock.cxx#4 $)

>  <Rbt.Library>
libRbt.so (2013.1, Build901 2013/11/27)

>  <Rbt.Parameter_File>
/export/apps/rDock/src/rDock_2013.1_src/data/scripts/dock_solv.prm

>  <Rbt.Receptor>
prm/pocket_docking_8.prm

>  <SCORE>
-9.92047

>  <SCORE.INTER>
-8.66688

>  <SCORE.INTER.CONST>
1

>  <SCORE.INTER.POLAR>
0

>  <SCORE.INTER.ROT>
7

>  <SCORE.INTER.SOLV>
16.079

>  <SCORE.INTER.VDW>
-19.4043

>  <SCORE.INTER.norm>
-0.320996

>  <SCORE.INTRA>
-1.25359

>  <SCORE.INTRA.DIHEDRAL>
-5.5816

>  <SCORE.INTRA.DIHEDRAL.0>
13.9704

>  <SCORE.INTRA.POLAR>
0

>  <SCORE.INTRA.POLAR.0>
0

>  <SCORE.INTRA.REPUL>
0

>  <SCORE.INTRA.REPUL.0>
0

>  <SCORE.INTRA.SOLV>
3.44994

>  <SCORE.INTRA.SOLV.lig_0>
-70.9758

>  <SCORE.INTRA.VDW>
-0.187765

>  <SCORE.INTRA.VDW.0>
-2.70686

>  <SCORE.INTRA.norm>
-0.0464293

>  <SCORE.RESTR>
0

>  <SCORE.RESTR.CAVITY>
0

>  <SCORE.RESTR.norm>
0

>  <SCORE.SYSTEM>
0

>  <SCORE.SYSTEM.CONST>
0

>  <SCORE.SYSTEM.DIHEDRAL>
0

>  <SCORE.SYSTEM.SOLV>
0

>  <SCORE.SYSTEM.norm>
0

>  <SCORE.heavy>
27

>  <SCORE.norm>
-0.367425

>  <RMSD>
5.333

$$$$
ligand
 OpenBabel11021811473D
libRbt.so/2013.1/901 2013/11/27
 27 29  0  0  0  0  0  0  0  0999 V2000
   50.3774   52.9278   30.9484 N   0  0  0  0  0  0  0  0  0  0  0  0
   49.1161   53.6267   30.7123 C   0  0  2  0  0  0  0  0  0  0  0  0
   48.2866   53.0434   29.5665 C   0  0  0  0  0  0  0  0  0  0  0  0
   48.7856   52.2357   28.8555 O   0  0  0  0  0  0  0  0  0  0  0  0
   49.2351   55.1638   30.6471 C   0  0  0  0  0  0  0  0  0  0  0  0
   49.7135   55.9467   31.9015 C   0  0  0  0  0  0  0  0  0  0  0  0
   48.6824   56.0651   33.0554 C   0  0  2  0  0  0  0  0  0  0  0  0
   49.1514   56.9103   34.1534 N   0  0  0  0  0  0  0  0  0  0  0  0
   48.1688   54.6714   33.5316 C   0  0  0  0  0  0  0  0  0  0  0  0
   47.0713   54.6201   34.6475 C   0  0  1  0  0  0  0  0  0  0  0  0
   45.8582   55.4137   34.4871 O   0  0  0  0  0  0  0  0  0  0  0  0
   46.5627   53.2126   35.0673 C   0  0  1  0  0  0  0  0  0  0  0  0
   47.4864   52.3364   35.7262 O   0  0  0  0  0  0  0  0  0  0  0  0
   45.1593   53.4581   35.7031 C   0  0  1  0  0  0  0  0  0  0  0  0
   45.0225   53.2810   37.0926 O   0  0  0  0  0  0  0  0  0  0  0  0
   44.7363   54.7933   35.0824 C   0  0  2  0  0  0  0  0  0  0  0  0
   46.8816   53.0895   29.6644 O   0  0  0  0  0  0  0  0  0  0  0  0
   42.5520   56.4535   30.3963 N   0  0  0  0  0  0  0  0  0  0  0  0
   43.7225   56.9226   31.0034 C   0  0  0  0  0  0  0  0  0  0  0  0
   44.1644   56.3561   32.2758 N   0  0  0  0  0  0  0  0  0  0  0  0
   43.4356   55.3642   32.8761 C   0  0  0  0  0  0  0  0  0  0  0  0
   42.2578   54.8992   32.2593 C   0  0  0  0  0  0  0  0  0  0  0  0
   41.8177   55.4647   30.9916 C   0  0  0  0  0  0  0  0  0  0  0  0
   40.5948   54.9823   30.3488 N   0  0  0  0  0  0  0  0  0  0  0  0
   41.6945   53.8679   33.0961 N   0  0  0  0  0  0  0  0  0  0  0  0
   42.5388   53.7169   34.2213 C   0  0  0  0  0  0  0  0  0  0  0  0
   43.6234   54.6332   34.1024 N   0  0  0  0  0  0  0  0  0  0  0  0
  2  1  1  6  0  0  0
  2  3  1  0  0  0  0
  2  5  1  0  0  0  0
  3  4  1  0  0  0  0
  3 17  1  0  0  0  0
  5  6  1  0  0  0  0
  7  6  1  6  0  0  0
  7  8  1  0  0  0  0
  7  9  1  0  0  0  0
 10  9  1  6  0  0  0
 10 11  1  0  0  0  0
 10 12  1  0  0  0  0
 11 16  1  0  0  0  0
 12 13  1  1  0  0  0
 12 14  1  0  0  0  0
 14 15  1  1  0  0  0
 14 16  1  0  0  0  0
 16 27  1  6  0  0  0
 18 19  2  0  0  0  0
 18 23  1  0  0  0  0
 19 20  1  0  0  0  0
 20 21  2  0  0  0  0
 21 22  1  0  0  0  0
 21 27  1  0  0  0  0
 22 23  2  0  0  0  0
 22 25  1  0  0  0  0
 23 24  1  0  0  0  0
 25 26  2  0  0  0  0
 26 27  1  0  0  0  0
M  END
>  <CHROM.1>
-10.69482381,-62.95888152,-73.72238966,-174.95888021,-177.20785318,51.44765413
-20.57368351,45.88905603,54.52728438,32.69242904,0.17694083,0.14918849,-1.49246502

>  <Name>
ligand

>  <RI>
0

>  <Rbt.Current_Directory>
/home/itssahil/PROJECTS/Mol_Feturizer/New_Systems/rnas/3GX2

>  <Rbt.Executable>
rbdock ($Id: //depot/dev/client3/rdock/2013.1/src/exe/rbdock.cxx#4 $)

>  <Rbt.Library>
libRbt.so (2013.1, Build901 2013/11/27)

>  <Rbt.Parameter_File>
/export/apps/rDock/src/rDock_2013.1_src/data/scripts/dock_solv.prm

>  <Rbt.Receptor>
prm/pocket_docking_6.prm

>  <SCORE>
-7.45866

>  <SCORE.INTER>
-4.82319

>  <SCORE.INTER.CONST>
1

>  <SCORE.INTER.POLAR>
0

>  <SCORE.INTER.ROT>
7

>  <SCORE.INTER.SOLV>
17.8216

>  <SCORE.INTER.VDW>
-17.4227

>  <SCORE.INTER.norm>
-0.178637

>  <SCORE.INTRA>
-2.63547

>  <SCORE.INTRA.DIHEDRAL>
-8.18781

>  <SCORE.INTRA.DIHEDRAL.0>
13.9704

>  <SCORE.INTRA.POLAR>
0

>  <SCORE.INTRA.POLAR.0>
0

>  <SCORE.INTRA.REPUL>
0

>  <SCORE.INTRA.REPUL.0>
0

>  <SCORE.INTRA.SOLV>
1.32878

>  <SCORE.INTRA.SOLV.lig_0>
-70.9758

>  <SCORE.INTRA.VDW>
0.794052

>  <SCORE.INTRA.VDW.0>
-2.70686

>  <SCORE.INTRA.norm>
-0.0976099

>  <SCORE.RESTR>
0

>  <SCORE.RESTR.CAVITY>
0

>  <SCORE.RESTR.norm>
0

>  <SCORE.SYSTEM>
0

>  <SCORE.SYSTEM.CONST>
0

>  <SCORE.SYSTEM.DIHEDRAL>
0

>  <SCORE.SYSTEM.SOLV>
0

>  <SCORE.SYSTEM.norm>
0

>  <SCORE.heavy>
27

>  <SCORE.norm>
-0.276247

>  <RMSD>
5.344

$$$$
ligand
 OpenBabel11021811473D
libRbt.so/2013.1/901 2013/11/27
 27 29  0  0  0  0  0  0  0  0999 V2000
   47.7777   58.7999   27.5844 N   0  0  0  0  0  0  0  0  0  0  0  0
   48.7058   58.1443   28.5031 C   0  0  2  0  0  0  0  0  0  0  0  0
   48.8404   56.6364   28.2806 C   0  0  0  0  0  0  0  0  0  0  0  0
   49.9102   56.1370   28.3943 O   0  0  0  0  0  0  0  0  0  0  0  0
   48.5131   58.5185   29.9876 C   0  0  0  0  0  0  0  0  0  0  0  0
   49.3386   57.7767   31.0756 C   0  0  0  0  0  0  0  0  0  0  0  0
   49.1206   58.2612   32.5337 C   0  0  2  0  0  0  0  0  0  0  0  0
   49.6317   59.6118   32.7673 N   0  0  0  0  0  0  0  0  0  0  0  0
   49.6300   57.2238   33.5813 C   0  0  0  0  0  0  0  0  0  0  0  0
   48.7489   55.9628   33.8746 C   0  0  1  0  0  0  0  0  0  0  0  0
   47.6848   55.6079   32.9424 O   0  0  0  0  0  0  0  0  0  0  0  0
   49.5001   54.6271   34.1345 C   0  0  1  0  0  0  0  0  0  0  0  0
   50.3002   54.5289   35.3199 O   0  0  0  0  0  0  0  0  0  0  0  0
   48.4608   53.5063   33.8215 C   0  0  1  0  0  0  0  0  0  0  0  0
   47.9537   52.7552   34.8983 O   0  0  0  0  0  0  0  0  0  0  0  0
   47.4765   54.2111   32.8828 C   0  0  2  0  0  0  0  0  0  0  0  0
   47.6935   55.8314   28.4294 O   0  0  0  0  0  0  0  0  0  0  0  0
   50.7435   53.0512   28.7032 N   0  0  0  0  0  0  0  0  0  0  0  0
   51.1109   53.5508   29.9579 C   0  0  0  0  0  0  0  0  0  0  0  0
   50.0896   53.8069   30.9711 N   0  0  0  0  0  0  0  0  0  0  0  0
   48.7716   53.5571   30.6963 C   0  0  0  0  0  0  0  0  0  0  0  0
   48.4102   53.0561   29.4304 C   0  0  0  0  0  0  0  0  0  0  0  0
   49.4284   52.8019   28.4209 C   0  0  0  0  0  0  0  0  0  0  0  0
   49.0550   52.2805   27.1056 N   0  0  0  0  0  0  0  0  0  0  0  0
   46.9776   52.8881   29.4107 N   0  0  0  0  0  0  0  0  0  0  0  0
   46.4787   53.2933   30.6711 C   0  0  0  0  0  0  0  0  0  0  0  0
   47.5742   53.7091   31.4816 N   0  0  0  0  0  0  0  0  0  0  0  0
  2  1  1  6  0  0  0
  2  3  1  0  0  0  0
  2  5  1  0  0  0  0
  3  4  1  0  0  0  0
  3 17  1  0  0  0  0
  5  6  1  0  0  0  0
  7  6  1  6  0  0  0
  7  8  1  0  0  0  0
  7  9  1  0  0  0  0
 10  9  1  6  0  0  0
 10 11  1  0  0  0  0
 10 12  1  0  0  0  0
 11 16  1  0  0  0  0
 12 13  1  1  0  0  0
 12 14  1  0  0  0  0
 14 15  1  1  0  0  0
 14 16  1  0  0  0  0
 16 27  1  6  0  0  0
 18 19  2  0  0  0  0
 18 23  1  0  0  0  0
 19 20  1  0  0  0  0
 20 21  2  0  0  0  0
 21 22  1  0  0  0  0
 21 27  1  0  0  0  0
 22 23  2  0  0  0  0
 22 25  1  0  0  0  0
 23 24  1  0  0  0  0
 25 26  2  0  0  0  0
 26 27  1  0  0  0  0
M  END
>  <CHROM.1>
141.46468168,173.65383326,177.55891346,-67.89388650,-77.45498481,15.90458830
73.30868541,48.81082659,55.22350910,30.99643907,-1.88303191,1.51753380,1.95829761

>  <Name>
ligand

>  <RI>
0

>  <Rbt.Current_Directory>
/home/itssahil/PROJECTS/Mol_Feturizer/New_Systems/rnas/3GX2

>  <Rbt.Executable>
rbdock ($Id: //depot/dev/client3/rdock/2013.1/src/exe/rbdock.cxx#4 $)

>  <Rbt.Library>
libRbt.so (2013.1, Build901 2013/11/27)

>  <Rbt.Parameter_File>
/export/apps/rDock/src/rDock_2013.1_src/data/scripts/dock_solv.prm

>  <Rbt.Receptor>
prm/pocket_docking_4.prm

>  <SCORE>
-11.3043

>  <SCORE.INTER>
-7.98604

>  <SCORE.INTER.CONST>
1

>  <SCORE.INTER.POLAR>
0

>  <SCORE.INTER.ROT>
7

>  <SCORE.INTER.SOLV>
20.1757

>  <SCORE.INTER.VDW>
-20.3159

>  <SCORE.INTER.norm>
-0.295779

>  <SCORE.INTRA>
-3.32915

>  <SCORE.INTRA.DIHEDRAL>
-2.94148

>  <SCORE.INTRA.DIHEDRAL.0>
13.9704

>  <SCORE.INTRA.POLAR>
0

>  <SCORE.INTRA.POLAR.0>
0

>  <SCORE.INTRA.REPUL>
0

>  <SCORE.INTRA.REPUL.0>
0

>  <SCORE.INTRA.SOLV>
1.03502

>  <SCORE.INTRA.SOLV.lig_0>
-70.9758

>  <SCORE.INTRA.VDW>
-2.37592

>  <SCORE.INTRA.VDW.0>
-2.70686

>  <SCORE.INTRA.norm>
-0.123302

>  <SCORE.RESTR>
0.0108823

>  <SCORE.RESTR.CAVITY>
0.0108823

>  <SCORE.RESTR.norm>
0.000403049

>  <SCORE.SYSTEM>
0

>  <SCORE.SYSTEM.CONST>
0

>  <SCORE.SYSTEM.DIHEDRAL>
0

>  <SCORE.SYSTEM.SOLV>
0

>  <SCORE.SYSTEM.norm>
0

>  <SCORE.heavy>
27

>  <SCORE.norm>
-0.418678

>  <RMSD>
5.348

$$$$
ligand
 OpenBabel11021811473D
libRbt.so/2013.1/901 2013/11/27
 27 29  0  0  0  0  0  0  0  0999 V2000
   46.8253   53.2016   29.5847 N   0  0  0  0  0  0  0  0  0  0  0  0
   48.0416   53.4631   28.8183 C   0  0  2  0  0  0  0  0  0  0  0  0
   48.9323   52.2338   28.6262 C   0  0  0  0  0  0  0  0  0  0  0  0
   48.8890   51.3669   29.4345 O   0  0  0  0  0  0  0  0  0  0  0  0
   48.8287   54.7121   29.2675 C   0  0  0  0  0  0  0  0  0  0  0  0
   48.1386   56.1040   29.2296 C   0  0  0  0  0  0  0  0  0  0  0  0
   49.0568   57.3194   29.5269 C   0  0  2  0  0  0  0  0  0  0  0  0
   49.6059   57.3000   30.8826 N   0  0  0  0  0  0  0  0  0  0  0  0
   48.3767   58.6747   29.1608 C   0  0  0  0  0  0  0  0  0  0  0  0
   47.1111   59.1187   29.9692 C   0  0  1  0  0  0  0  0  0  0  0  0
   46.1311   58.1128   30.3627 O   0  0  0  0  0  0  0  0  0  0  0  0
   47.3586   59.9471   31.2609 C   0  0  1  0  0  0  0  0  0  0  0  0
   47.9125   61.2615   31.1172 O   0  0  0  0  0  0  0  0  0  0  0  0
   46.0736   59.7517   32.1240 C   0  0  1  0  0  0  0  0  0  0  0  0
   45.2100   60.8516   32.2826 O   0  0  0  0  0  0  0  0  0  0  0  0
   45.5035   58.4349   31.5875 C   0  0  2  0  0  0  0  0  0  0  0  0
   49.3878   51.9320   27.3273 O   0  0  0  0  0  0  0  0  0  0  0  0
   48.7603   55.7942   35.0383 N   0  0  0  0  0  0  0  0  0  0  0  0
   49.0823   56.8964   34.2381 C   0  0  0  0  0  0  0  0  0  0  0  0
   48.0720   57.4837   33.3609 N   0  0  0  0  0  0  0  0  0  0  0  0
   46.8079   56.9586   33.3210 C   0  0  0  0  0  0  0  0  0  0  0  0
   46.4927   55.8481   34.1282 C   0  0  0  0  0  0  0  0  0  0  0  0
   47.5003   55.2629   35.0015 C   0  0  0  0  0  0  0  0  0  0  0  0
   47.1745   54.1098   35.8416 N   0  0  0  0  0  0  0  0  0  0  0  0
   45.1122   55.5033   33.8913 N   0  0  0  0  0  0  0  0  0  0  0  0
   44.5992   56.4110   32.9349 C   0  0  0  0  0  0  0  0  0  0  0  0
   45.6333   57.3210   32.5710 N   0  0  0  0  0  0  0  0  0  0  0  0
  2  1  1  1  0  0  0
  2  3  1  0  0  0  0
  2  5  1  0  0  0  0
  3  4  1  0  0  0  0
  3 17  1  0  0  0  0
  5  6  1  0  0  0  0
  7  6  1  1  0  0  0
  7  8  1  0  0  0  0
  7  9  1  0  0  0  0
 10  9  1  1  0  0  0
 10 11  1  0  0  0  0
 10 12  1  0  0  0  0
 11 16  1  0  0  0  0
 12 13  1  6  0  0  0
 12 14  1  0  0  0  0
 14 15  1  6  0  0  0
 14 16  1  0  0  0  0
 16 27  1  1  0  0  0
 18 19  2  0  0  0  0
 18 23  1  0  0  0  0
 19 20  1  0  0  0  0
 20 21  2  0  0  0  0
 21 22  1  0  0  0  0
 21 27  1  0  0  0  0
 22 23  2  0  0  0  0
 22 25  1  0  0  0  0
 23 24  1  0  0  0  0
 25 26  2  0  0  0  0
 26 27  1  0  0  0  0
M  END
>  <CHROM.1>
-26.99818177,-59.54525211,-172.60179775,-63.51161715,65.49416903,-38.33058876
75.47554240,47.44665219,56.49412496,31.43454961,0.44846013,-1.24809607,2.54653548

>  <Name>
ligand

>  <RI>
0

>  <Rbt.Current_Directory>
/home/itssahil/PROJECTS/Mol_Feturizer/New_Systems/rnas/3GX2

>  <Rbt.Executable>
rbdock ($Id: //depot/dev/client3/rdock/2013.1/src/exe/rbdock.cxx#4 $)

>  <Rbt.Library>
libRbt.so (2013.1, Build901 2013/11/27)

>  <Rbt.Parameter_File>
/export/apps/rDock/src/rDock_2013.1_src/data/scripts/dock_solv.prm

>  <Rbt.Receptor>
prm/pocket_docking_6.prm

>  <SCORE>
-12.3093

>  <SCORE.INTER>
-8.96582

>  <SCORE.INTER.CONST>
1

>  <SCORE.INTER.POLAR>
0

>  <SCORE.INTER.ROT>
7

>  <SCORE.INTER.SOLV>
15.977

>  <SCORE.INTER.VDW>
-19.5696

>  <SCORE.INTER.norm>
-0.332067

>  <SCORE.INTRA>
-3.34345

>  <SCORE.INTRA.DIHEDRAL>
-7.46505

>  <SCORE.INTRA.DIHEDRAL.0>
13.9704

>  <SCORE.INTRA.POLAR>
0

>  <SCORE.INTRA.POLAR.0>
0

>  <SCORE.INTRA.REPUL>
0

>  <SCORE.INTRA.REPUL.0>
0

>  <SCORE.INTRA.SOLV>
3.01279

>  <SCORE.INTRA.SOLV.lig_0>
-70.9758

>  <SCORE.INTRA.VDW>
-1.11731

>  <SCORE.INTRA.VDW.0>
-2.70686

>  <SCORE.INTRA.norm>
-0.123831

>  <SCORE.RESTR>
0

>  <SCORE.RESTR.CAVITY>
0

>  <SCORE.RESTR.norm>
0

>  <SCORE.SYSTEM>
0

>  <SCORE.SYSTEM.CONST>
0

>  <SCORE.SYSTEM.DIHEDRAL>
0

>  <SCORE.SYSTEM.SOLV>
0

>  <SCORE.SYSTEM.norm>
0

>  <SCORE.heavy>
27

>  <SCORE.norm>
-0.455899

>  <RMSD>
5.359

$$$$
ligand
 OpenBabel11021811473D
libRbt.so/2013.1/901 2013/11/27
 27 29  0  0  0  0  0  0  0  0999 V2000
   47.1973   61.6898   31.1974 N   0  0  0  0  0  0  0  0  0  0  0  0
   46.9814   60.4609   31.9578 C   0  0  2  0  0  0  0  0  0  0  0  0
   48.1768   59.5058   31.9492 C   0  0  0  0  0  0  0  0  0  0  0  0
   48.8337   59.4240   30.9650 O   0  0  0  0  0  0  0  0  0  0  0  0
   45.6424   59.7514   31.6665 C   0  0  0  0  0  0  0  0  0  0  0  0
   45.2180   58.5348   32.5354 C   0  0  0  0  0  0  0  0  0  0  0  0
   46.0123   57.2238   32.2927 C   0  0  2  0  0  0  0  0  0  0  0  0
   45.6917   56.5925   31.0125 N   0  0  0  0  0  0  0  0  0  0  0  0
   45.9130   56.2427   33.5013 C   0  0  0  0  0  0  0  0  0  0  0  0
   46.7116   54.8970   33.4398 C   0  0  1  0  0  0  0  0  0  0  0  0
   46.4326   53.9546   32.3622 O   0  0  0  0  0  0  0  0  0  0  0  0
   48.2621   54.9990   33.4760 C   0  0  1  0  0  0  0  0  0  0  0  0
   48.8732   55.4802   34.6801 O   0  0  0  0  0  0  0  0  0  0  0  0
   48.7739   53.6693   32.8402 C   0  0  1  0  0  0  0  0  0  0  0  0
   49.3979   52.7306   33.6830 O   0  0  0  0  0  0  0  0  0  0  0  0
   47.5818   53.2214   31.9887 C   0  0  2  0  0  0  0  0  0  0  0  0
   48.7492   59.1365   33.1828 O   0  0  0  0  0  0  0  0  0  0  0  0
   49.1291   56.4839   27.9329 N   0  0  0  0  0  0  0  0  0  0  0  0
   49.0012   56.8116   29.2875 C   0  0  0  0  0  0  0  0  0  0  0  0
   48.5683   55.7986   30.2475 N   0  0  0  0  0  0  0  0  0  0  0  0
   48.2885   54.5265   29.8246 C   0  0  0  0  0  0  0  0  0  0  0  0
   48.4180   54.2057   28.4592 C   0  0  0  0  0  0  0  0  0  0  0  0
   48.8488   55.2159   27.5030 C   0  0  0  0  0  0  0  0  0  0  0  0
   48.9848   54.8842   26.0842 N   0  0  0  0  0  0  0  0  0  0  0  0
   48.0638   52.8172   28.2929 N   0  0  0  0  0  0  0  0  0  0  0  0
   47.7178   52.3052   29.5655 C   0  0  0  0  0  0  0  0  0  0  0  0
   47.8526   53.3477   30.5273 N   0  0  0  0  0  0  0  0  0  0  0  0
  2  1  1  6  0  0  0
  2  3  1  0  0  0  0
  2  5  1  0  0  0  0
  3  4  1  0  0  0  0
  3 17  1  0  0  0  0
  5  6  1  0  0  0  0
  7  6  1  1  0  0  0
  7  8  1  0  0  0  0
  7  9  1  0  0  0  0
 10  9  1  6  0  0  0
 10 11  1  0  0  0  0
 10 12  1  0  0  0  0
 11 16  1  0  0  0  0
 12 13  1  1  0  0  0
 12 14  1  0  0  0  0
 14 15  1  1  0  0  0
 14 16  1  0  0  0  0
 16 27  1  6  0  0  0
 18 19  2  0  0  0  0
 18 23  1  0  0  0  0
 19 20  1  0  0  0  0
 20 21  2  0  0  0  0
 21 22  1  0  0  0  0
 21 27  1  0  0  0  0
 22 23  2  0  0  0  0
 22 25  1  0  0  0  0
 23 24  1  0  0  0  0
 25 26  2  0  0  0  0
 26 27  1  0  0  0  0
M  END
>  <CHROM.1>
-35.67611704,-172.49558175,-72.22440506,-71.70488287,-177.39494364,-59.77249233
68.88717635,47.75704785,56.10833921,31.21015894,-2.53229916,-1.33177281,2.55983590

>  <Name>
ligand

>  <RI>
0

>  <Rbt.Current_Directory>
/home/itssahil/PROJECTS/Mol_Feturizer/New_Systems/rnas/3GX2

>  <Rbt.Executable>
rbdock ($Id: //depot/dev/client3/rdock/2013.1/src/exe/rbdock.cxx#4 $)

>  <Rbt.Library>
libRbt.so (2013.1, Build901 2013/11/27)

>  <Rbt.Parameter_File>
/export/apps/rDock/src/rDock_2013.1_src/data/scripts/dock_solv.prm

>  <Rbt.Receptor>
prm/pocket_docking_3.prm

>  <SCORE>
-10.9988

>  <SCORE.INTER>
-6.92412

>  <SCORE.INTER.CONST>
1

>  <SCORE.INTER.POLAR>
0

>  <SCORE.INTER.ROT>
7

>  <SCORE.INTER.SOLV>
15.4215

>  <SCORE.INTER.VDW>
-18.0232

>  <SCORE.INTER.norm>
-0.256449

>  <SCORE.INTRA>
-4.07467

>  <SCORE.INTRA.DIHEDRAL>
-8.28012

>  <SCORE.INTRA.DIHEDRAL.0>
13.9704

>  <SCORE.INTRA.POLAR>
0

>  <SCORE.INTRA.POLAR.0>
0

>  <SCORE.INTRA.REPUL>
0

>  <SCORE.INTRA.REPUL.0>
0

>  <SCORE.INTRA.SOLV>
4.08814

>  <SCORE.INTRA.SOLV.lig_0>
-70.9758

>  <SCORE.INTRA.VDW>
-1.97868

>  <SCORE.INTRA.VDW.0>
-2.70686

>  <SCORE.INTRA.norm>
-0.150914

>  <SCORE.RESTR>
0

>  <SCORE.RESTR.CAVITY>
0

>  <SCORE.RESTR.norm>
0

>  <SCORE.SYSTEM>
0

>  <SCORE.SYSTEM.CONST>
0

>  <SCORE.SYSTEM.DIHEDRAL>
0

>  <SCORE.SYSTEM.SOLV>
0

>  <SCORE.SYSTEM.norm>
0

>  <SCORE.heavy>
27

>  <SCORE.norm>
-0.407363

>  <RMSD>
5.360

$$$$
ligand
 OpenBabel11021811473D
libRbt.so/2013.1/901 2013/11/27
 27 29  0  0  0  0  0  0  0  0999 V2000
   49.0827   54.3559   26.7400 N   0  0  0  0  0  0  0  0  0  0  0  0
   48.5144   53.6851   27.9071 C   0  0  2  0  0  0  0  0  0  0  0  0
   49.4445   52.6506   28.5443 C   0  0  0  0  0  0  0  0  0  0  0  0
   50.4230   52.3263   27.9577 O   0  0  0  0  0  0  0  0  0  0  0  0
   47.0763   53.1611   27.7108 C   0  0  0  0  0  0  0  0  0  0  0  0
   45.8864   54.1595   27.7600 C   0  0  0  0  0  0  0  0  0  0  0  0
   45.6723   54.8863   29.1144 C   0  0  2  0  0  0  0  0  0  0  0  0
   45.3193   53.9729   30.2012 N   0  0  0  0  0  0  0  0  0  0  0  0
   44.6929   56.0936   28.9865 C   0  0  0  0  0  0  0  0  0  0  0  0
   44.5436   57.0677   30.2036 C   0  0  1  0  0  0  0  0  0  0  0  0
   44.0685   56.5430   31.4787 O   0  0  0  0  0  0  0  0  0  0  0  0
   45.7871   57.9234   30.5741 C   0  0  1  0  0  0  0  0  0  0  0  0
   46.2170   58.9199   29.6373 O   0  0  0  0  0  0  0  0  0  0  0  0
   45.5789   58.3213   32.0682 C   0  0  1  0  0  0  0  0  0  0  0  0
   45.2910   59.6678   32.3600 O   0  0  0  0  0  0  0  0  0  0  0  0
   44.6274   57.2342   32.5777 C   0  0  2  0  0  0  0  0  0  0  0  0
   49.4005   52.4801   29.9424 O   0  0  0  0  0  0  0  0  0  0  0  0
   49.2322   55.8802   35.1172 N   0  0  0  0  0  0  0  0  0  0  0  0
   49.0306   56.9429   34.2289 C   0  0  0  0  0  0  0  0  0  0  0  0
   47.7136   57.1593   33.6341 N   0  0  0  0  0  0  0  0  0  0  0  0
   46.6736   56.3246   33.9455 C   0  0  0  0  0  0  0  0  0  0  0  0
   46.8856   55.2564   34.8389 C   0  0  0  0  0  0  0  0  0  0  0  0
   48.1986   55.0409   35.4307 C   0  0  0  0  0  0  0  0  0  0  0  0
   48.4205   53.9323   36.3598 N   0  0  0  0  0  0  0  0  0  0  0  0
   45.6392   54.5453   34.9861 N   0  0  0  0  0  0  0  0  0  0  0  0
   44.6767   55.1901   34.1741 C   0  0  0  0  0  0  0  0  0  0  0  0
   45.2973   56.2952   33.5233 N   0  0  0  0  0  0  0  0  0  0  0  0
  2  1  1  6  0  0  0
  2  3  1  0  0  0  0
  2  5  1  0  0  0  0
  3  4  1  0  0  0  0
  3 17  1  0  0  0  0
  5  6  1  0  0  0  0
  7  6  1  6  0  0  0
  7  8  1  0  0  0  0
  7  9  1  0  0  0  0
 10  9  1  6  0  0  0
 10 11  1  0  0  0  0
 10 12  1  0  0  0  0
 11 16  1  0  0  0  0
 12 13  1  6  0  0  0
 12 14  1  0  0  0  0
 14 15  1  6  0  0  0
 14 16  1  0  0  0  0
 16 27  1  1  0  0  0
 18 19  2  0  0  0  0
 18 23  1  0  0  0  0
 19 20  1  0  0  0  0
 20 21  2  0  0  0  0
 21 22  1  0  0  0  0
 21 27  1  0  0  0  0
 22 23  2  0  0  0  0
 22 25  1  0  0  0  0
 23 24  1  0  0  0  0
 25 26  2  0  0  0  0
 26 27  1  0  0  0  0
M  END
>  <CHROM.1>
-11.32252378,-77.10728378,-63.11588897,-64.14997984,-170.49787655,-60.48747291
122.30050236,46.80083748,55.55465738,31.39187265,-1.21294609,-0.78641878
1.37549754

>  <Name>
ligand

>  <RI>
0

>  <Rbt.Current_Directory>
/home/itssahil/PROJECTS/Mol_Feturizer/New_Systems/rnas/3GX2

>  <Rbt.Executable>
rbdock ($Id: //depot/dev/client3/rdock/2013.1/src/exe/rbdock.cxx#4 $)

>  <Rbt.Library>
libRbt.so (2013.1, Build901 2013/11/27)

>  <Rbt.Parameter_File>
/export/apps/rDock/src/rDock_2013.1_src/data/scripts/dock_solv.prm

>  <Rbt.Receptor>
prm/pocket_docking_4.prm

>  <SCORE>
-9.79714

>  <SCORE.INTER>
-7.17434

>  <SCORE.INTER.CONST>
1

>  <SCORE.INTER.POLAR>
0

>  <SCORE.INTER.ROT>
7

>  <SCORE.INTER.SOLV>
11.9712

>  <SCORE.INTER.VDW>
-17.04

>  <SCORE.INTER.norm>
-0.265716

>  <SCORE.INTRA>
-2.62279

>  <SCORE.INTRA.DIHEDRAL>
-7.85079

>  <SCORE.INTRA.DIHEDRAL.0>
13.9704

>  <SCORE.INTRA.POLAR>
0

>  <SCORE.INTRA.POLAR.0>
0

>  <SCORE.INTRA.REPUL>
0

>  <SCORE.INTRA.REPUL.0>
0

>  <SCORE.INTRA.SOLV>
2.64705

>  <SCORE.INTRA.SOLV.lig_0>
-70.9758

>  <SCORE.INTRA.VDW>
-0.0209236

>  <SCORE.INTRA.VDW.0>
-2.70686

>  <SCORE.INTRA.norm>
-0.0971405

>  <SCORE.RESTR>
0

>  <SCORE.RESTR.CAVITY>
0

>  <SCORE.RESTR.norm>
0

>  <SCORE.SYSTEM>
0

>  <SCORE.SYSTEM.CONST>
0

>  <SCORE.SYSTEM.DIHEDRAL>
0

>  <SCORE.SYSTEM.SOLV>
0

>  <SCORE.SYSTEM.norm>
0

>  <SCORE.heavy>
27

>  <SCORE.norm>
-0.362857

>  <RMSD>
5.363

$$$$
ligand
 OpenBabel11021811473D
libRbt.so/2013.1/901 2013/11/27
 27 29  0  0  0  0  0  0  0  0999 V2000
   48.3657   59.1864   30.0935 N   0  0  0  0  0  0  0  0  0  0  0  0
   47.7158   59.3036   31.3970 C   0  0  2  0  0  0  0  0  0  0  0  0
   46.2555   59.7550   31.3257 C   0  0  0  0  0  0  0  0  0  0  0  0
   45.4491   59.1807   31.9789 O   0  0  0  0  0  0  0  0  0  0  0  0
   48.5325   60.0735   32.4559 C   0  0  0  0  0  0  0  0  0  0  0  0
   49.9372   59.5501   32.8658 C   0  0  0  0  0  0  0  0  0  0  0  0
   50.0450   58.0191   33.0956 C   0  0  2  0  0  0  0  0  0  0  0  0
   49.8394   57.2438   31.8723 N   0  0  0  0  0  0  0  0  0  0  0  0
   49.1550   57.5377   34.2828 C   0  0  0  0  0  0  0  0  0  0  0  0
   48.2391   56.2852   34.0709 C   0  0  1  0  0  0  0  0  0  0  0  0
   47.3137   56.2650   32.9438 O   0  0  0  0  0  0  0  0  0  0  0  0
   48.9442   54.9009   34.0203 C   0  0  1  0  0  0  0  0  0  0  0  0
   49.5722   54.4255   35.2181 O   0  0  0  0  0  0  0  0  0  0  0  0
   47.9559   53.9668   33.2556 C   0  0  1  0  0  0  0  0  0  0  0  0
   47.3030   52.9557   33.9851 O   0  0  0  0  0  0  0  0  0  0  0  0
   47.1126   54.9573   32.4465 C   0  0  2  0  0  0  0  0  0  0  0  0
   45.9802   61.0721   30.9069 O   0  0  0  0  0  0  0  0  0  0  0  0
   48.4341   51.7831   28.2435 N   0  0  0  0  0  0  0  0  0  0  0  0
   48.2431   51.3968   29.5751 C   0  0  0  0  0  0  0  0  0  0  0  0
   47.8883   52.3941   30.5824 N   0  0  0  0  0  0  0  0  0  0  0  0
   47.7402   53.7079   30.2259 C   0  0  0  0  0  0  0  0  0  0  0  0
   47.9360   54.0885   28.8839 C   0  0  0  0  0  0  0  0  0  0  0  0
   48.2903   53.0942   27.8807 C   0  0  0  0  0  0  0  0  0  0  0  0
   48.4933   53.4875   26.4859 N   0  0  0  0  0  0  0  0  0  0  0  0
   47.7213   55.5118   28.7891 N   0  0  0  0  0  0  0  0  0  0  0  0
   47.3978   55.9860   30.0822 C   0  0  0  0  0  0  0  0  0  0  0  0
   47.4024   54.8839   30.9852 N   0  0  0  0  0  0  0  0  0  0  0  0
  2  1  1  6  0  0  0
  2  3  1  0  0  0  0
  2  5  1  0  0  0  0
  3  4  1  0  0  0  0
  3 17  1  0  0  0  0
  5  6  1  0  0  0  0
  7  6  1  6  0  0  0
  7  8  1  0  0  0  0
  7  9  1  0  0  0  0
 10  9  1  6  0  0  0
 10 11  1  0  0  0  0
 10 12  1  0  0  0  0
 11 16  1  0  0  0  0
 12 13  1  1  0  0  0
 12 14  1  0  0  0  0
 14 15  1  1  0  0  0
 14 16  1  0  0  0  0
 16 27  1  6  0  0  0
 18 19  2  0  0  0  0
 18 23  1  0  0  0  0
 19 20  1  0  0  0  0
 20 21  2  0  0  0  0
 21 22  1  0  0  0  0
 21 27  1  0  0  0  0
 22 23  2  0  0  0  0
 22 25  1  0  0  0  0
 23 24  1  0  0  0  0
 25 26  2  0  0  0  0
 26 27  1  0  0  0  0
M  END
>  <CHROM.1>
134.28863131,-59.77588091,-43.71059381,65.95381349,132.34829127,-53.71347919
157.91517090,48.02571398,56.03338890,31.47855204,1.74278958,-1.34525724,0.58082598

>  <Name>
ligand

>  <RI>
0

>  <Rbt.Current_Directory>
/home/itssahil/PROJECTS/Mol_Feturizer/New_Systems/rnas/3GX2

>  <Rbt.Executable>
rbdock ($Id: //depot/dev/client3/rdock/2013.1/src/exe/rbdock.cxx#4 $)

>  <Rbt.Library>
libRbt.so (2013.1, Build901 2013/11/27)

>  <Rbt.Parameter_File>
/export/apps/rDock/src/rDock_2013.1_src/data/scripts/dock_solv.prm

>  <Rbt.Receptor>
prm/pocket_docking_2.prm

>  <SCORE>
-6.39717

>  <SCORE.INTER>
-8.56059

>  <SCORE.INTER.CONST>
1

>  <SCORE.INTER.POLAR>
0

>  <SCORE.INTER.ROT>
7

>  <SCORE.INTER.SOLV>
14.1813

>  <SCORE.INTER.VDW>
-18.7008

>  <SCORE.INTER.norm>
-0.317059

>  <SCORE.INTRA>
1.17799

>  <SCORE.INTRA.DIHEDRAL>
-2.8421

>  <SCORE.INTRA.DIHEDRAL.0>
13.9704

>  <SCORE.INTRA.POLAR>
0

>  <SCORE.INTRA.POLAR.0>
0

>  <SCORE.INTRA.REPUL>
0

>  <SCORE.INTRA.REPUL.0>
0

>  <SCORE.INTRA.SOLV>
7.81052

>  <SCORE.INTRA.SOLV.lig_0>
-70.9758

>  <SCORE.INTRA.VDW>
-1.30622

>  <SCORE.INTRA.VDW.0>
-2.70686

>  <SCORE.INTRA.norm>
0.0436293

>  <SCORE.RESTR>
0.985427

>  <SCORE.RESTR.CAVITY>
0.985427

>  <SCORE.RESTR.norm>
0.0364973

>  <SCORE.SYSTEM>
0

>  <SCORE.SYSTEM.CONST>
0

>  <SCORE.SYSTEM.DIHEDRAL>
0

>  <SCORE.SYSTEM.SOLV>
0

>  <SCORE.SYSTEM.norm>
0

>  <SCORE.heavy>
27

>  <SCORE.norm>
-0.236932

>  <RMSD>
5.365

$$$$
ligand
 OpenBabel11021811473D
libRbt.so/2013.1/901 2013/11/27
 27 29  0  0  0  0  0  0  0  0999 V2000
   50.5290   53.9993   24.9857 N   0  0  0  0  0  0  0  0  0  0  0  0
   50.7820   55.0289   25.9912 C   0  0  2  0  0  0  0  0  0  0  0  0
   51.6934   54.5730   27.1327 C   0  0  0  0  0  0  0  0  0  0  0  0
   52.0034   53.4297   27.1924 O   0  0  0  0  0  0  0  0  0  0  0  0
   49.5211   55.7677   26.4866 C   0  0  0  0  0  0  0  0  0  0  0  0
   49.6624   56.8883   27.5540 C   0  0  0  0  0  0  0  0  0  0  0  0
   48.3399   57.5717   27.9925 C   0  0  2  0  0  0  0  0  0  0  0  0
   47.6711   58.2734   26.8968 N   0  0  0  0  0  0  0  0  0  0  0  0
   48.5277   58.4573   29.2628 C   0  0  0  0  0  0  0  0  0  0  0  0
   47.2523   58.9454   30.0294 C   0  0  1  0  0  0  0  0  0  0  0  0
   46.2420   57.9689   30.4204 O   0  0  0  0  0  0  0  0  0  0  0  0
   47.4855   59.7972   31.3084 C   0  0  1  0  0  0  0  0  0  0  0  0
   48.0705   61.0964   31.1497 O   0  0  0  0  0  0  0  0  0  0  0  0
   46.1761   59.6478   32.1433 C   0  0  1  0  0  0  0  0  0  0  0  0
   45.3322   60.7685   32.2562 O   0  0  0  0  0  0  0  0  0  0  0  0
   45.5916   58.3312   31.6218 C   0  0  2  0  0  0  0  0  0  0  0  0
   52.5077   55.5335   27.7653 O   0  0  0  0  0  0  0  0  0  0  0  0
   48.7488   55.5967   35.0919 N   0  0  0  0  0  0  0  0  0  0  0  0
   49.1200   56.6576   34.2579 C   0  0  0  0  0  0  0  0  0  0  0  0
   48.1305   57.2794   33.3808 N   0  0  0  0  0  0  0  0  0  0  0  0
   46.8380   56.8272   33.3740 C   0  0  0  0  0  0  0  0  0  0  0  0
   46.4733   55.7578   34.2151 C   0  0  0  0  0  0  0  0  0  0  0  0
   47.4601   55.1380   35.0883 C   0  0  0  0  0  0  0  0  0  0  0  0
   47.0828   54.0276   35.9635 N   0  0  0  0  0  0  0  0  0  0  0  0
   45.0715   55.4871   34.0083 N   0  0  0  0  0  0  0  0  0  0  0  0
   44.5955   56.3980   33.0361 C   0  0  0  0  0  0  0  0  0  0  0  0
   45.6738   57.2373   32.6325 N   0  0  0  0  0  0  0  0  0  0  0  0
  2  1  1  1  0  0  0
  2  3  1  0  0  0  0
  2  5  1  0  0  0  0
  3  4  1  0  0  0  0
  3 17  1  0  0  0  0
  5  6  1  0  0  0  0
  7  6  1  6  0  0  0
  7  8  1  0  0  0  0
  7  9  1  0  0  0  0
 10  9  1  1  0  0  0
 10 11  1  0  0  0  0
 10 12  1  0  0  0  0
 11 16  1  0  0  0  0
 12 13  1  6  0  0  0
 12 14  1  0  0  0  0
 14 15  1  6  0  0  0
 14 16  1  0  0  0  0
 16 27  1  1  0  0  0
 18 19  2  0  0  0  0
 18 23  1  0  0  0  0
 19 20  1  0  0  0  0
 20 21  2  0  0  0  0
 21 22  1  0  0  0  0
 21 27  1  0  0  0  0
 22 23  2  0  0  0  0
 22 25  1  0  0  0  0
 23 24  1  0  0  0  0
 25 26  2  0  0  0  0
 26 27  1  0  0  0  0
M  END
>  <CHROM.1>
-7.41012751,-179.81312883,-179.87034575,-62.81720712,-165.96310564,51.51472821
72.33657380,48.07058054,56.93518019,30.69694614,-0.56714196,-0.92209379,2.20566715

>  <Name>
ligand

>  <RI>
0

>  <Rbt.Current_Directory>
/home/itssahil/PROJECTS/Mol_Feturizer/New_Systems/rnas/3GX2

>  <Rbt.Executable>
rbdock ($Id: //depot/dev/client3/rdock/2013.1/src/exe/rbdock.cxx#4 $)

>  <Rbt.Library>
libRbt.so (2013.1, Build901 2013/11/27)

>  <Rbt.Parameter_File>
/export/apps/rDock/src/rDock_2013.1_src/data/scripts/dock_solv.prm

>  <Rbt.Receptor>
prm/pocket_docking_5.prm

>  <SCORE>
-14.611

>  <SCORE.INTER>
-10.9259

>  <SCORE.INTER.CONST>
1

>  <SCORE.INTER.POLAR>
0

>  <SCORE.INTER.ROT>
7

>  <SCORE.INTER.SOLV>
17.5515

>  <SCORE.INTER.VDW>
-21.4011

>  <SCORE.INTER.norm>
-0.404663

>  <SCORE.INTRA>
-3.68511

>  <SCORE.INTRA.DIHEDRAL>
-8.26946

>  <SCORE.INTRA.DIHEDRAL.0>
13.9704

>  <SCORE.INTRA.POLAR>
0

>  <SCORE.INTRA.POLAR.0>
0

>  <SCORE.INTRA.REPUL>
0

>  <SCORE.INTRA.REPUL.0>
0

>  <SCORE.INTRA.SOLV>
0.471148

>  <SCORE.INTRA.SOLV.lig_0>
-70.9758

>  <SCORE.INTRA.VDW>
0.214044

>  <SCORE.INTRA.VDW.0>
-2.70686

>  <SCORE.INTRA.norm>
-0.136486

>  <SCORE.RESTR>
0

>  <SCORE.RESTR.CAVITY>
0

>  <SCORE.RESTR.norm>
0

>  <SCORE.SYSTEM>
0

>  <SCORE.SYSTEM.CONST>
0

>  <SCORE.SYSTEM.DIHEDRAL>
0

>  <SCORE.SYSTEM.SOLV>
0

>  <SCORE.SYSTEM.norm>
0

>  <SCORE.heavy>
27

>  <SCORE.norm>
-0.541148

>  <RMSD>
5.369

$$$$
ligand
 OpenBabel11021811483D
libRbt.so/2013.1/901 2013/11/27
 27 29  0  0  0  0  0  0  0  0999 V2000
   45.1987   57.7558   28.5415 N   0  0  0  0  0  0  0  0  0  0  0  0
   46.4281   58.4584   28.9019 C   0  0  2  0  0  0  0  0  0  0  0  0
   47.5298   58.3672   27.8440 C   0  0  0  0  0  0  0  0  0  0  0  0
   48.5977   58.8194   28.0930 O   0  0  0  0  0  0  0  0  0  0  0  0
   46.9390   58.1697   30.3291 C   0  0  0  0  0  0  0  0  0  0  0  0
   47.2618   56.7070   30.7433 C   0  0  0  0  0  0  0  0  0  0  0  0
   47.5881   56.4885   32.2447 C   0  0  2  0  0  0  0  0  0  0  0  0
   48.8107   57.1717   32.6670 N   0  0  0  0  0  0  0  0  0  0  0  0
   47.5621   54.9796   32.6395 C   0  0  0  0  0  0  0  0  0  0  0  0
   47.6031   54.6032   34.1590 C   0  0  1  0  0  0  0  0  0  0  0  0
   46.6164   55.1857   35.0615 O   0  0  0  0  0  0  0  0  0  0  0  0
   47.6022   53.0883   34.5069 C   0  0  1  0  0  0  0  0  0  0  0  0
   48.7489   52.3146   34.1306 O   0  0  0  0  0  0  0  0  0  0  0  0
   47.0750   53.0062   35.9730 C   0  0  1  0  0  0  0  0  0  0  0  0
   47.9846   52.6421   36.9835 O   0  0  0  0  0  0  0  0  0  0  0  0
   46.2872   54.3115   36.1222 C   0  0  2  0  0  0  0  0  0  0  0  0
   47.4259   57.3723   26.8515 O   0  0  0  0  0  0  0  0  0  0  0  0
   41.5264   54.5761   33.5237 N   0  0  0  0  0  0  0  0  0  0  0  0
   42.7869   54.9306   33.0295 C   0  0  0  0  0  0  0  0  0  0  0  0
   43.9698   54.7933   33.8763 N   0  0  0  0  0  0  0  0  0  0  0  0
   43.8482   54.3160   35.1540 C   0  0  0  0  0  0  0  0  0  0  0  0
   42.5757   53.9632   35.6441 C   0  0  0  0  0  0  0  0  0  0  0  0
   41.3972   54.1011   34.8000 C   0  0  0  0  0  0  0  0  0  0  0  0
   40.0745   53.7342   35.3071 N   0  0  0  0  0  0  0  0  0  0  0  0
   42.7344   53.4984   37.0005 N   0  0  0  0  0  0  0  0  0  0  0  0
   44.1094   53.5760   37.3246 C   0  0  0  0  0  0  0  0  0  0  0  0
   44.8157   54.0780   36.1937 N   0  0  0  0  0  0  0  0  0  0  0  0
  2  1  1  6  0  0  0
  2  3  1  0  0  0  0
  2  5  1  0  0  0  0
  3  4  1  0  0  0  0
  3 17  1  0  0  0  0
  5  6  1  0  0  0  0
  7  6  1  6  0  0  0
  7  8  1  0  0  0  0
  7  9  1  0  0  0  0
 10  9  1  6  0  0  0
 10 11  1  0  0  0  0
 10 12  1  0  0  0  0
 11 16  1  0  0  0  0
 12 13  1  1  0  0  0
 12 14  1  0  0  0  0
 14 15  1  1  0  0  0
 14 16  1  0  0  0  0
 16 27  1  6  0  0  0
 18 19  2  0  0  0  0
 18 23  1  0  0  0  0
 19 20  1  0  0  0  0
 20 21  2  0  0  0  0
 21 22  1  0  0  0  0
 21 27  1  0  0  0  0
 22 23  2  0  0  0  0
 22 25  1  0  0  0  0
 23 24  1  0  0  0  0
 25 26  2  0  0  0  0
 26 27  1  0  0  0  0
M  END
>  <CHROM.1>
-174.28446541,58.22900848,-172.23618835,-64.44301272,-168.70265719,54.02022089
18.38621423,45.77525392,55.24731829,33.17403118,1.18049591,0.03412766,-1.01675498

>  <Name>
ligand

>  <RI>
0

>  <Rbt.Current_Directory>
/home/itssahil/PROJECTS/Mol_Feturizer/New_Systems/rnas/3GX2

>  <Rbt.Executable>
rbdock ($Id: //depot/dev/client3/rdock/2013.1/src/exe/rbdock.cxx#4 $)

>  <Rbt.Library>
libRbt.so (2013.1, Build901 2013/11/27)

>  <Rbt.Parameter_File>
/export/apps/rDock/src/rDock_2013.1_src/data/scripts/dock_solv.prm

>  <Rbt.Receptor>
prm/pocket_docking_8.prm

>  <SCORE>
-9.94034

>  <SCORE.INTER>
-6.37513

>  <SCORE.INTER.CONST>
1

>  <SCORE.INTER.POLAR>
0

>  <SCORE.INTER.ROT>
7

>  <SCORE.INTER.SOLV>
13.3262

>  <SCORE.INTER.VDW>
-16.9588

>  <SCORE.INTER.norm>
-0.236116

>  <SCORE.INTRA>
-3.56522

>  <SCORE.INTRA.DIHEDRAL>
-8.55132

>  <SCORE.INTRA.DIHEDRAL.0>
13.9704

>  <SCORE.INTRA.POLAR>
0

>  <SCORE.INTRA.POLAR.0>
0

>  <SCORE.INTRA.REPUL>
0

>  <SCORE.INTRA.REPUL.0>
0

>  <SCORE.INTRA.SOLV>
1.06607

>  <SCORE.INTRA.SOLV.lig_0>
-70.9758

>  <SCORE.INTRA.VDW>
0.17741

>  <SCORE.INTRA.VDW.0>
-2.70686

>  <SCORE.INTRA.norm>
-0.132045

>  <SCORE.RESTR>
0

>  <SCORE.RESTR.CAVITY>
0

>  <SCORE.RESTR.norm>
0

>  <SCORE.SYSTEM>
0

>  <SCORE.SYSTEM.CONST>
0

>  <SCORE.SYSTEM.DIHEDRAL>
0

>  <SCORE.SYSTEM.SOLV>
0

>  <SCORE.SYSTEM.norm>
0

>  <SCORE.heavy>
27

>  <SCORE.norm>
-0.368161

>  <RMSD>
5.371

$$$$
ligand
 OpenBabel11021811473D
libRbt.so/2013.1/901 2013/11/27
 27 29  0  0  0  0  0  0  0  0999 V2000
   46.1198   57.6977   28.0323 N   0  0  0  0  0  0  0  0  0  0  0  0
   47.5150   57.7335   27.5998 C   0  0  2  0  0  0  0  0  0  0  0  0
   48.1494   56.3515   27.4302 C   0  0  0  0  0  0  0  0  0  0  0  0
   49.2412   56.2780   26.9726 O   0  0  0  0  0  0  0  0  0  0  0  0
   48.4083   58.7127   28.3900 C   0  0  0  0  0  0  0  0  0  0  0  0
   48.4741   58.6061   29.9390 C   0  0  0  0  0  0  0  0  0  0  0  0
   47.1457   58.8870   30.6907 C   0  0  2  0  0  0  0  0  0  0  0  0
   46.5639   60.1860   30.3527 N   0  0  0  0  0  0  0  0  0  0  0  0
   47.2786   58.6566   32.2277 C   0  0  0  0  0  0  0  0  0  0  0  0
   47.9180   57.3185   32.7308 C   0  0  1  0  0  0  0  0  0  0  0  0
   47.8552   56.1370   31.8780 O   0  0  0  0  0  0  0  0  0  0  0  0
   49.3984   57.3812   33.2003 C   0  0  1  0  0  0  0  0  0  0  0  0
   49.6949   58.1408   34.3794 O   0  0  0  0  0  0  0  0  0  0  0  0
   49.9264   55.9178   33.0837 C   0  0  1  0  0  0  0  0  0  0  0  0
   50.1885   55.2125   34.2731 O   0  0  0  0  0  0  0  0  0  0  0  0
   48.9803   55.2988   32.0499 C   0  0  2  0  0  0  0  0  0  0  0  0
   47.6722   55.2919   28.2273 O   0  0  0  0  0  0  0  0  0  0  0  0
   49.8277   51.7593   28.0199 N   0  0  0  0  0  0  0  0  0  0  0  0
   49.0369   51.5777   29.1603 C   0  0  0  0  0  0  0  0  0  0  0  0
   48.9230   52.6471   30.1495 N   0  0  0  0  0  0  0  0  0  0  0  0
   49.5879   53.8295   29.9625 C   0  0  0  0  0  0  0  0  0  0  0  0
   50.3832   54.0033   28.8129 C   0  0  0  0  0  0  0  0  0  0  0  0
   50.4967   52.9369   27.8279 C   0  0  0  0  0  0  0  0  0  0  0  0
   51.3217   53.1159   26.6325 N   0  0  0  0  0  0  0  0  0  0  0  0
   50.9633   55.3229   28.8685 N   0  0  0  0  0  0  0  0  0  0  0  0
   50.5147   55.9411   30.0593 C   0  0  0  0  0  0  0  0  0  0  0  0
   49.6606   55.0332   30.7494 N   0  0  0  0  0  0  0  0  0  0  0  0
  2  1  1  1  0  0  0
  2  3  1  0  0  0  0
  2  5  1  0  0  0  0
  3  4  1  0  0  0  0
  3 17  1  0  0  0  0
  5  6  1  0  0  0  0
  7  6  1  6  0  0  0
  7  8  1  0  0  0  0
  7  9  1  0  0  0  0
 10  9  1  6  0  0  0
 10 11  1  0  0  0  0
 10 12  1  0  0  0  0
 11 16  1  0  0  0  0
 12 13  1  1  0  0  0
 12 14  1  0  0  0  0
 14 15  1  1  0  0  0
 14 16  1  0  0  0  0
 16 27  1  6  0  0  0
 18 19  2  0  0  0  0
 18 23  1  0  0  0  0
 19 20  1  0  0  0  0
 20 21  2  0  0  0  0
 21 22  1  0  0  0  0
 21 27  1  0  0  0  0
 22 23  2  0  0  0  0
 22 25  1  0  0  0  0
 23 24  1  0  0  0  0
 25 26  2  0  0  0  0
 26 27  1  0  0  0  0
M  END
>  <CHROM.1>
173.61516688,54.37962410,-63.83222211,-54.91949867,-49.45918939,-25.51470970
-103.26252074,48.91537778,55.97433907,30.09933142,2.17134933,-1.07985394
1.23003525

>  <Name>
ligand

>  <RI>
0

>  <Rbt.Current_Directory>
/home/itssahil/PROJECTS/Mol_Feturizer/New_Systems/rnas/3GX2

>  <Rbt.Executable>
rbdock ($Id: //depot/dev/client3/rdock/2013.1/src/exe/rbdock.cxx#4 $)

>  <Rbt.Library>
libRbt.so (2013.1, Build901 2013/11/27)

>  <Rbt.Parameter_File>
/export/apps/rDock/src/rDock_2013.1_src/data/scripts/dock_solv.prm

>  <Rbt.Receptor>
prm/pocket_docking_6.prm

>  <SCORE>
-11.4526

>  <SCORE.INTER>
-8.73651

>  <SCORE.INTER.CONST>
1

>  <SCORE.INTER.POLAR>
0

>  <SCORE.INTER.ROT>
7

>  <SCORE.INTER.SOLV>
15.5865

>  <SCORE.INTER.VDW>
-19.2865

>  <SCORE.INTER.norm>
-0.323574

>  <SCORE.INTRA>
-2.71903

>  <SCORE.INTRA.DIHEDRAL>
-5.15178

>  <SCORE.INTRA.DIHEDRAL.0>
13.9704

>  <SCORE.INTRA.POLAR>
0

>  <SCORE.INTRA.POLAR.0>
0

>  <SCORE.INTRA.REPUL>
0

>  <SCORE.INTRA.REPUL.0>
0

>  <SCORE.INTRA.SOLV>
4.87002

>  <SCORE.INTRA.SOLV.lig_0>
-70.9758

>  <SCORE.INTRA.VDW>
-2.57815

>  <SCORE.INTRA.VDW.0>
-2.70686

>  <SCORE.INTRA.norm>
-0.100705

>  <SCORE.RESTR>
0.00298341

>  <SCORE.RESTR.CAVITY>
0.00298341

>  <SCORE.RESTR.norm>
0.000110497

>  <SCORE.SYSTEM>
0

>  <SCORE.SYSTEM.CONST>
0

>  <SCORE.SYSTEM.DIHEDRAL>
0

>  <SCORE.SYSTEM.SOLV>
0

>  <SCORE.SYSTEM.norm>
0

>  <SCORE.heavy>
27

>  <SCORE.norm>
-0.424169

>  <RMSD>
5.372

$$$$
ligand
 OpenBabel11021811473D
libRbt.so/2013.1/901 2013/11/27
 27 29  0  0  0  0  0  0  0  0999 V2000
   48.2322   53.9447   27.6527 N   0  0  0  0  0  0  0  0  0  0  0  0
   48.1898   54.2025   29.0903 C   0  0  2  0  0  0  0  0  0  0  0  0
   47.1069   53.4160   29.8318 C   0  0  0  0  0  0  0  0  0  0  0  0
   46.0897   53.1783   29.2699 O   0  0  0  0  0  0  0  0  0  0  0  0
   48.2199   55.6961   29.4770 C   0  0  0  0  0  0  0  0  0  0  0  0
   48.3381   56.0951   30.9743 C   0  0  0  0  0  0  0  0  0  0  0  0
   49.6170   55.6041   31.7034 C   0  0  2  0  0  0  0  0  0  0  0  0
   49.7119   54.1457   31.7667 N   0  0  0  0  0  0  0  0  0  0  0  0
   49.8039   56.2909   33.0915 C   0  0  0  0  0  0  0  0  0  0  0  0
   48.7738   55.9738   34.2276 C   0  0  1  0  0  0  0  0  0  0  0  0
   47.3518   56.1742   33.9727 O   0  0  0  0  0  0  0  0  0  0  0  0
   48.8578   54.5644   34.8775 C   0  0  1  0  0  0  0  0  0  0  0  0
   50.0273   54.2497   35.6445 O   0  0  0  0  0  0  0  0  0  0  0  0
   47.4488   54.3169   35.5000 C   0  0  1  0  0  0  0  0  0  0  0  0
   47.3363   54.3169   36.9029 O   0  0  0  0  0  0  0  0  0  0  0  0
   46.5507   55.2537   34.6859 C   0  0  2  0  0  0  0  0  0  0  0  0
   47.4923   52.6027   30.9161 O   0  0  0  0  0  0  0  0  0  0  0  0
   42.4272   51.7451   34.2688 N   0  0  0  0  0  0  0  0  0  0  0  0
   43.0279   52.2174   35.4414 C   0  0  0  0  0  0  0  0  0  0  0  0
   44.1363   53.1664   35.3645 N   0  0  0  0  0  0  0  0  0  0  0  0
   44.5887   53.5970   34.1459 C   0  0  0  0  0  0  0  0  0  0  0  0
   43.9798   53.1151   32.9706 C   0  0  0  0  0  0  0  0  0  0  0  0
   42.8757   52.1688   33.0480 C   0  0  0  0  0  0  0  0  0  0  0  0
   42.2413   51.6679   31.8282 N   0  0  0  0  0  0  0  0  0  0  0  0
   44.6448   53.7225   31.8438 N   0  0  0  0  0  0  0  0  0  0  0  0
   45.6590   54.5705   32.3476 C   0  0  0  0  0  0  0  0  0  0  0  0
   45.6389   54.5079   33.7708 N   0  0  0  0  0  0  0  0  0  0  0  0
  2  1  1  6  0  0  0
  2  3  1  0  0  0  0
  2  5  1  0  0  0  0
  3  4  1  0  0  0  0
  3 17  1  0  0  0  0
  5  6  1  0  0  0  0
  7  6  1  1  0  0  0
  7  8  1  0  0  0  0
  7  9  1  0  0  0  0
 10  9  1  6  0  0  0
 10 11  1  0  0  0  0
 10 12  1  0  0  0  0
 11 16  1  0  0  0  0
 12 13  1  1  0  0  0
 12 14  1  0  0  0  0
 14 15  1  1  0  0  0
 14 16  1  0  0  0  0
 16 27  1  6  0  0  0
 18 19  2  0  0  0  0
 18 23  1  0  0  0  0
 19 20  1  0  0  0  0
 20 21  2  0  0  0  0
 21 22  1  0  0  0  0
 21 27  1  0  0  0  0
 22 23  2  0  0  0  0
 22 25  1  0  0  0  0
 23 24  1  0  0  0  0
 25 26  2  0  0  0  0
 26 27  1  0  0  0  0
M  END
>  <CHROM.1>
-33.00796903,-173.28411282,60.54727473,-62.87703412,67.03387449,-54.62946908
-173.03806057,46.67676247,54.10670540,32.75498891,0.45443705,-0.45727048
-1.66580343

>  <Name>
ligand

>  <RI>
0

>  <Rbt.Current_Directory>
/home/itssahil/PROJECTS/Mol_Feturizer/New_Systems/rnas/3GX2

>  <Rbt.Executable>
rbdock ($Id: //depot/dev/client3/rdock/2013.1/src/exe/rbdock.cxx#4 $)

>  <Rbt.Library>
libRbt.so (2013.1, Build901 2013/11/27)

>  <Rbt.Parameter_File>
/export/apps/rDock/src/rDock_2013.1_src/data/scripts/dock_solv.prm

>  <Rbt.Receptor>
prm/pocket_docking_7.prm

>  <SCORE>
-6.8975

>  <SCORE.INTER>
-3.12251

>  <SCORE.INTER.CONST>
1

>  <SCORE.INTER.POLAR>
0

>  <SCORE.INTER.ROT>
7

>  <SCORE.INTER.SOLV>
13.0634

>  <SCORE.INTER.VDW>
-14.7028

>  <SCORE.INTER.norm>
-0.115649

>  <SCORE.INTRA>
-3.77498

>  <SCORE.INTRA.DIHEDRAL>
-9.10451

>  <SCORE.INTRA.DIHEDRAL.0>
13.9704

>  <SCORE.INTRA.POLAR>
0

>  <SCORE.INTRA.POLAR.0>
0

>  <SCORE.INTRA.REPUL>
0

>  <SCORE.INTRA.REPUL.0>
0

>  <SCORE.INTRA.SOLV>
5.2262

>  <SCORE.INTRA.SOLV.lig_0>
-70.9758

>  <SCORE.INTRA.VDW>
-1.83582

>  <SCORE.INTRA.VDW.0>
-2.70686

>  <SCORE.INTRA.norm>
-0.139814

>  <SCORE.RESTR>
0

>  <SCORE.RESTR.CAVITY>
0

>  <SCORE.RESTR.norm>
0

>  <SCORE.SYSTEM>
0

>  <SCORE.SYSTEM.CONST>
0

>  <SCORE.SYSTEM.DIHEDRAL>
0

>  <SCORE.SYSTEM.SOLV>
0

>  <SCORE.SYSTEM.norm>
0

>  <SCORE.heavy>
27

>  <SCORE.norm>
-0.255463

>  <RMSD>
5.373

$$$$
ligand
 OpenBabel11021811483D
libRbt.so/2013.1/901 2013/11/27
 27 29  0  0  0  0  0  0  0  0999 V2000
   52.2846   52.3692   26.8406 N   0  0  0  0  0  0  0  0  0  0  0  0
   50.8681   52.0109   26.8553 C   0  0  2  0  0  0  0  0  0  0  0  0
   50.1530   52.2461   25.5232 C   0  0  0  0  0  0  0  0  0  0  0  0
   49.2127   51.5748   25.2549 O   0  0  0  0  0  0  0  0  0  0  0  0
   50.0799   52.5543   28.0654 C   0  0  0  0  0  0  0  0  0  0  0  0
   50.3446   54.0032   28.5611 C   0  0  0  0  0  0  0  0  0  0  0  0
   49.1915   54.6617   29.3643 C   0  0  2  0  0  0  0  0  0  0  0  0
   48.0952   55.1228   28.5126 N   0  0  0  0  0  0  0  0  0  0  0  0
   49.7087   55.7592   30.3448 C   0  0  0  0  0  0  0  0  0  0  0  0
   48.6660   56.7218   31.0071 C   0  0  1  0  0  0  0  0  0  0  0  0
   47.4233   56.1686   31.5333 O   0  0  0  0  0  0  0  0  0  0  0  0
   49.1884   57.6504   32.1388 C   0  0  1  0  0  0  0  0  0  0  0  0
   50.1305   58.6715   31.7852 O   0  0  0  0  0  0  0  0  0  0  0  0
   47.9242   58.0341   32.9686 C   0  0  1  0  0  0  0  0  0  0  0  0
   47.4601   59.3606   32.8917 O   0  0  0  0  0  0  0  0  0  0  0  0
   46.9537   56.8914   32.6534 C   0  0  2  0  0  0  0  0  0  0  0  0
   50.2942   53.5014   24.8986 O   0  0  0  0  0  0  0  0  0  0  0  0
   49.2621   53.9505   36.5917 N   0  0  0  0  0  0  0  0  0  0  0  0
   49.9054   54.7150   35.6116 C   0  0  0  0  0  0  0  0  0  0  0  0
   49.1186   55.4477   34.6220 N   0  0  0  0  0  0  0  0  0  0  0  0
   47.7508   55.3896   34.6522 C   0  0  0  0  0  0  0  0  0  0  0  0
   47.1114   54.6163   35.6407 C   0  0  0  0  0  0  0  0  0  0  0  0
   47.8961   53.8858   36.6261 C   0  0  0  0  0  0  0  0  0  0  0  0
   47.2336   53.0827   37.6544 N   0  0  0  0  0  0  0  0  0  0  0  0
   45.6871   54.7296   35.4421 N   0  0  0  0  0  0  0  0  0  0  0  0
   45.4732   55.5732   34.3267 C   0  0  0  0  0  0  0  0  0  0  0  0
   46.7387   55.9937   33.8250 N   0  0  0  0  0  0  0  0  0  0  0  0
  2  1  1  6  0  0  0
  2  3  1  0  0  0  0
  2  5  1  0  0  0  0
  3  4  1  0  0  0  0
  3 17  1  0  0  0  0
  5  6  1  0  0  0  0
  7  6  1  6  0  0  0
  7  8  1  0  0  0  0
  7  9  1  0  0  0  0
 10  9  1  1  0  0  0
 10 11  1  0  0  0  0
 10 12  1  0  0  0  0
 11 16  1  0  0  0  0
 12 13  1  6  0  0  0
 12 14  1  0  0  0  0
 14 15  1  6  0  0  0
 14 16  1  0  0  0  0
 16 27  1  1  0  0  0
 18 19  2  0  0  0  0
 18 23  1  0  0  0  0
 19 20  1  0  0  0  0
 20 21  2  0  0  0  0
 21 22  1  0  0  0  0
 21 27  1  0  0  0  0
 22 23  2  0  0  0  0
 22 25  1  0  0  0  0
 23 24  1  0  0  0  0
 25 26  2  0  0  0  0
 26 27  1  0  0  0  0
M  END
>  <CHROM.1>
152.34071894,41.23693020,156.87871954,-76.87330185,167.44726779,43.67833944
73.50367432,48.70101329,55.00681705,31.50159823,-0.25827218,-1.27425725,2.58348021

>  <Name>
ligand

>  <RI>
0

>  <Rbt.Current_Directory>
/home/itssahil/PROJECTS/Mol_Feturizer/New_Systems/rnas/3GX2

>  <Rbt.Executable>
rbdock ($Id: //depot/dev/client3/rdock/2013.1/src/exe/rbdock.cxx#4 $)

>  <Rbt.Library>
libRbt.so (2013.1, Build901 2013/11/27)

>  <Rbt.Parameter_File>
/export/apps/rDock/src/rDock_2013.1_src/data/scripts/dock_solv.prm

>  <Rbt.Receptor>
prm/pocket_docking_7.prm

>  <SCORE>
-8.84391

>  <SCORE.INTER>
-7.63417

>  <SCORE.INTER.CONST>
1

>  <SCORE.INTER.POLAR>
0

>  <SCORE.INTER.ROT>
7

>  <SCORE.INTER.SOLV>
15.6497

>  <SCORE.INTER.VDW>
-18.5727

>  <SCORE.INTER.norm>
-0.282747

>  <SCORE.INTRA>
-1.20974

>  <SCORE.INTRA.DIHEDRAL>
-3.42777

>  <SCORE.INTRA.DIHEDRAL.0>
13.9704

>  <SCORE.INTRA.POLAR>
0

>  <SCORE.INTRA.POLAR.0>
0

>  <SCORE.INTRA.REPUL>
0

>  <SCORE.INTRA.REPUL.0>
0

>  <SCORE.INTRA.SOLV>
1.53239

>  <SCORE.INTRA.SOLV.lig_0>
-70.9758

>  <SCORE.INTRA.VDW>
-0.26205

>  <SCORE.INTRA.VDW.0>
-2.70686

>  <SCORE.INTRA.norm>
-0.0448051

>  <SCORE.RESTR>
0

>  <SCORE.RESTR.CAVITY>
0

>  <SCORE.RESTR.norm>
0

>  <SCORE.SYSTEM>
0

>  <SCORE.SYSTEM.CONST>
0

>  <SCORE.SYSTEM.DIHEDRAL>
0

>  <SCORE.SYSTEM.SOLV>
0

>  <SCORE.SYSTEM.norm>
0

>  <SCORE.heavy>
27

>  <SCORE.norm>
-0.327552

>  <RMSD>
5.375

$$$$
ligand
 OpenBabel11021811473D
libRbt.so/2013.1/901 2013/11/27
 27 29  0  0  0  0  0  0  0  0999 V2000
   50.5368   53.9293   24.9596 N   0  0  0  0  0  0  0  0  0  0  0  0
   50.8215   54.8832   26.0292 C   0  0  2  0  0  0  0  0  0  0  0  0
   51.6653   54.3070   27.1683 C   0  0  0  0  0  0  0  0  0  0  0  0
   52.2760   55.0534   27.8588 O   0  0  0  0  0  0  0  0  0  0  0  0
   49.5942   55.6733   26.5298 C   0  0  0  0  0  0  0  0  0  0  0  0
   49.7829   56.7714   27.6132 C   0  0  0  0  0  0  0  0  0  0  0  0
   48.4878   57.4898   28.0769 C   0  0  2  0  0  0  0  0  0  0  0  0
   47.8158   58.2076   26.9937 N   0  0  0  0  0  0  0  0  0  0  0  0
   48.7241   58.3716   29.3417 C   0  0  0  0  0  0  0  0  0  0  0  0
   47.5016   59.1236   29.9682 C   0  0  1  0  0  0  0  0  0  0  0  0
   46.2336   58.4181   30.1154 O   0  0  0  0  0  0  0  0  0  0  0  0
   47.7289   59.8067   31.3457 C   0  0  1  0  0  0  0  0  0  0  0  0
   48.6321   60.9187   31.4003 O   0  0  0  0  0  0  0  0  0  0  0  0
   46.3066   59.9486   31.9711 C   0  0  1  0  0  0  0  0  0  0  0  0
   45.7564   61.2397   32.0766 O   0  0  0  0  0  0  0  0  0  0  0  0
   45.5084   58.8614   31.2447 C   0  0  2  0  0  0  0  0  0  0  0  0
   51.3355   53.0316   27.6685 O   0  0  0  0  0  0  0  0  0  0  0  0
   42.1014   54.7483   32.2256 N   0  0  0  0  0  0  0  0  0  0  0  0
   42.0559   55.6562   31.1615 C   0  0  0  0  0  0  0  0  0  0  0  0
   43.0631   56.7094   31.0547 N   0  0  0  0  0  0  0  0  0  0  0  0
   44.0545   56.8095   31.9941 C   0  0  0  0  0  0  0  0  0  0  0  0
   44.0919   55.8928   33.0629 C   0  0  0  0  0  0  0  0  0  0  0  0
   43.0873   54.8440   33.1690 C   0  0  0  0  0  0  0  0  0  0  0  0
   43.1251   53.8902   34.2782 N   0  0  0  0  0  0  0  0  0  0  0  0
   45.2232   56.2245   33.8942 N   0  0  0  0  0  0  0  0  0  0  0  0
   45.8648   57.3476   33.3210 C   0  0  0  0  0  0  0  0  0  0  0  0
   45.1573   57.7234   32.1428 N   0  0  0  0  0  0  0  0  0  0  0  0
  2  1  1  6  0  0  0
  2  3  1  0  0  0  0
  2  5  1  0  0  0  0
  3  4  1  0  0  0  0
  3 17  1  0  0  0  0
  5  6  1  0  0  0  0
  7  6  1  6  0  0  0
  7  8  1  0  0  0  0
  7  9  1  0  0  0  0
 10  9  1  1  0  0  0
 10 11  1  0  0  0  0
 10 12  1  0  0  0  0
 11 16  1  0  0  0  0
 12 13  1  6  0  0  0
 12 14  1  0  0  0  0
 14 15  1  6  0  0  0
 14 16  1  0  0  0  0
 16 27  1  1  0  0  0
 18 19  2  0  0  0  0
 18 23  1  0  0  0  0
 19 20  1  0  0  0  0
 20 21  2  0  0  0  0
 21 22  1  0  0  0  0
 21 27  1  0  0  0  0
 22 23  2  0  0  0  0
 22 25  1  0  0  0  0
 23 24  1  0  0  0  0
 25 26  2  0  0  0  0
 26 27  1  0  0  0  0
M  END
>  <CHROM.1>
157.81484681,-176.78964542,-178.67112562,-61.63488044,-177.79839491,43.60347041
-81.72913969,47.01801836,56.91147536,30.18921893,0.33967526,-0.65053460,-2.88645789

>  <Name>
ligand

>  <RI>
0

>  <Rbt.Current_Directory>
/home/itssahil/PROJECTS/Mol_Feturizer/New_Systems/rnas/3GX2

>  <Rbt.Executable>
rbdock ($Id: //depot/dev/client3/rdock/2013.1/src/exe/rbdock.cxx#4 $)

>  <Rbt.Library>
libRbt.so (2013.1, Build901 2013/11/27)

>  <Rbt.Parameter_File>
/export/apps/rDock/src/rDock_2013.1_src/data/scripts/dock_solv.prm

>  <Rbt.Receptor>
prm/pocket_docking_5.prm

>  <SCORE>
-12.9591

>  <SCORE.INTER>
-10.1041

>  <SCORE.INTER.CONST>
1

>  <SCORE.INTER.POLAR>
0

>  <SCORE.INTER.ROT>
7

>  <SCORE.INTER.SOLV>
15.7731

>  <SCORE.INTER.VDW>
-20.2604

>  <SCORE.INTER.norm>
-0.374224

>  <SCORE.INTRA>
-2.85503

>  <SCORE.INTRA.DIHEDRAL>
-8.16709

>  <SCORE.INTRA.DIHEDRAL.0>
13.9704

>  <SCORE.INTRA.POLAR>
0

>  <SCORE.INTRA.POLAR.0>
0

>  <SCORE.INTRA.REPUL>
0

>  <SCORE.INTRA.REPUL.0>
0

>  <SCORE.INTRA.SOLV>
0.741825

>  <SCORE.INTRA.SOLV.lig_0>
-70.9758

>  <SCORE.INTRA.VDW>
0.857607

>  <SCORE.INTRA.VDW.0>
-2.70686

>  <SCORE.INTRA.norm>
-0.105742

>  <SCORE.RESTR>
0

>  <SCORE.RESTR.CAVITY>
0

>  <SCORE.RESTR.norm>
0

>  <SCORE.SYSTEM>
0

>  <SCORE.SYSTEM.CONST>
0

>  <SCORE.SYSTEM.DIHEDRAL>
0

>  <SCORE.SYSTEM.SOLV>
0

>  <SCORE.SYSTEM.norm>
0

>  <SCORE.heavy>
27

>  <SCORE.norm>
-0.479966

>  <RMSD>
5.393

$$$$
ligand
 OpenBabel11021811473D
libRbt.so/2013.1/901 2013/11/27
 27 29  0  0  0  0  0  0  0  0999 V2000
   48.8798   54.2183   26.8078 N   0  0  0  0  0  0  0  0  0  0  0  0
   50.2494   54.6447   27.0861 C   0  0  2  0  0  0  0  0  0  0  0  0
   51.0489   53.6544   27.9353 C   0  0  0  0  0  0  0  0  0  0  0  0
   52.0225   54.0386   28.4933 O   0  0  0  0  0  0  0  0  0  0  0  0
   50.3821   56.1018   27.5762 C   0  0  0  0  0  0  0  0  0  0  0  0
   49.5129   56.5885   28.7690 C   0  0  0  0  0  0  0  0  0  0  0  0
   49.9332   56.0631   30.1675 C   0  0  2  0  0  0  0  0  0  0  0  0
   49.5760   54.6605   30.3798 N   0  0  0  0  0  0  0  0  0  0  0  0
   49.4499   56.9992   31.3179 C   0  0  0  0  0  0  0  0  0  0  0  0
   47.9112   57.1336   31.5762 C   0  0  1  0  0  0  0  0  0  0  0  0
   47.1488   55.9494   31.9551 O   0  0  0  0  0  0  0  0  0  0  0  0
   47.4622   58.2254   32.5873 C   0  0  1  0  0  0  0  0  0  0  0  0
   47.6737   59.5972   32.2287 O   0  0  0  0  0  0  0  0  0  0  0  0
   46.0509   57.7742   33.0758 C   0  0  1  0  0  0  0  0  0  0  0  0
   44.9358   58.5262   32.6611 O   0  0  0  0  0  0  0  0  0  0  0  0
   46.0670   56.2660   32.8079 C   0  0  2  0  0  0  0  0  0  0  0  0
   50.3931   52.5061   28.4223 O   0  0  0  0  0  0  0  0  0  0  0  0
   49.2047   54.1636   36.7096 N   0  0  0  0  0  0  0  0  0  0  0  0
   49.6120   54.9200   35.6047 C   0  0  0  0  0  0  0  0  0  0  0  0
   48.6220   55.4080   34.6471 N   0  0  0  0  0  0  0  0  0  0  0  0
   47.2940   55.1281   34.8292 C   0  0  0  0  0  0  0  0  0  0  0  0
   46.8928   54.3646   35.9429 C   0  0  0  0  0  0  0  0  0  0  0  0
   47.8800   53.8780   36.8964 C   0  0  0  0  0  0  0  0  0  0  0  0
   47.4650   53.0855   38.0544 N   0  0  0  0  0  0  0  0  0  0  0  0
   45.4585   54.2202   35.8900 N   0  0  0  0  0  0  0  0  0  0  0  0
   44.9992   54.8988   34.7367 C   0  0  0  0  0  0  0  0  0  0  0  0
   46.1204   55.4692   34.0677 N   0  0  0  0  0  0  0  0  0  0  0  0
  2  1  1  1  0  0  0
  2  3  1  0  0  0  0
  2  5  1  0  0  0  0
  3  4  1  0  0  0  0
  3 17  1  0  0  0  0
  5  6  1  0  0  0  0
  7  6  1  6  0  0  0
  7  8  1  0  0  0  0
  7  9  1  0  0  0  0
 10  9  1  1  0  0  0
 10 11  1  0  0  0  0
 10 12  1  0  0  0  0
 11 16  1  0  0  0  0
 12 13  1  6  0  0  0
 12 14  1  0  0  0  0
 14 15  1  6  0  0  0
 14 16  1  0  0  0  0
 16 27  1  1  0  0  0
 18 19  2  0  0  0  0
 18 23  1  0  0  0  0
 19 20  1  0  0  0  0
 20 21  2  0  0  0  0
 21 22  1  0  0  0  0
 21 27  1  0  0  0  0
 22 23  2  0  0  0  0
 22 25  1  0  0  0  0
 23 24  1  0  0  0  0
 25 26  2  0  0  0  0
 26 27  1  0  0  0  0
M  END
>  <CHROM.1>
-161.12312511,51.62614878,73.45371308,-74.53472304,66.30951642,61.50950859
39.24136721,48.25818333,55.52544231,32.16514124,-0.86630198,-0.88538356,2.11318514

>  <Name>
ligand

>  <RI>
0

>  <Rbt.Current_Directory>
/home/itssahil/PROJECTS/Mol_Feturizer/New_Systems/rnas/3GX2

>  <Rbt.Executable>
rbdock ($Id: //depot/dev/client3/rdock/2013.1/src/exe/rbdock.cxx#4 $)

>  <Rbt.Library>
libRbt.so (2013.1, Build901 2013/11/27)

>  <Rbt.Parameter_File>
/export/apps/rDock/src/rDock_2013.1_src/data/scripts/dock_solv.prm

>  <Rbt.Receptor>
prm/pocket_docking_4.prm

>  <SCORE>
-11.2493

>  <SCORE.INTER>
-10.1285

>  <SCORE.INTER.CONST>
1

>  <SCORE.INTER.POLAR>
0

>  <SCORE.INTER.ROT>
7

>  <SCORE.INTER.SOLV>
12.2522

>  <SCORE.INTER.VDW>
-19.1031

>  <SCORE.INTER.norm>
-0.375129

>  <SCORE.INTRA>
-1.12085

>  <SCORE.INTRA.DIHEDRAL>
-7.60841

>  <SCORE.INTRA.DIHEDRAL.0>
13.9704

>  <SCORE.INTRA.POLAR>
0

>  <SCORE.INTRA.POLAR.0>
0

>  <SCORE.INTRA.REPUL>
0

>  <SCORE.INTRA.REPUL.0>
0

>  <SCORE.INTRA.SOLV>
6.3797

>  <SCORE.INTRA.SOLV.lig_0>
-70.9758

>  <SCORE.INTRA.VDW>
-0.506494

>  <SCORE.INTRA.VDW.0>
-2.70686

>  <SCORE.INTRA.norm>
-0.041513

>  <SCORE.RESTR>
0

>  <SCORE.RESTR.CAVITY>
0

>  <SCORE.RESTR.norm>
0

>  <SCORE.SYSTEM>
0

>  <SCORE.SYSTEM.CONST>
0

>  <SCORE.SYSTEM.DIHEDRAL>
0

>  <SCORE.SYSTEM.SOLV>
0

>  <SCORE.SYSTEM.norm>
0

>  <SCORE.heavy>
27

>  <SCORE.norm>
-0.416642

>  <RMSD>
5.394

$$$$
ligand
 OpenBabel11021811483D
libRbt.so/2013.1/901 2013/11/27
 27 29  0  0  0  0  0  0  0  0999 V2000
   45.2658   55.0777   30.4703 N   0  0  0  0  0  0  0  0  0  0  0  0
   44.1811   56.0473   30.3344 C   0  0  2  0  0  0  0  0  0  0  0  0
   44.4589   57.3906   31.0122 C   0  0  0  0  0  0  0  0  0  0  0  0
   44.0295   57.5785   32.1018 O   0  0  0  0  0  0  0  0  0  0  0  0
   42.7776   55.4910   30.6537 C   0  0  0  0  0  0  0  0  0  0  0  0
   42.5725   54.6191   31.9236 C   0  0  0  0  0  0  0  0  0  0  0  0
   43.0195   53.1378   31.8032 C   0  0  2  0  0  0  0  0  0  0  0  0
   42.5009   52.4824   30.6026 N   0  0  0  0  0  0  0  0  0  0  0  0
   42.7430   52.3311   33.1094 C   0  0  0  0  0  0  0  0  0  0  0  0
   43.4854   52.7550   34.4215 C   0  0  1  0  0  0  0  0  0  0  0  0
   44.9098   53.0627   34.3634 O   0  0  0  0  0  0  0  0  0  0  0  0
   42.8663   53.9294   35.2298 C   0  0  1  0  0  0  0  0  0  0  0  0
   41.5877   53.7190   35.8431 O   0  0  0  0  0  0  0  0  0  0  0  0
   44.0389   54.4977   36.0877 C   0  0  1  0  0  0  0  0  0  0  0  0
   44.0020   54.2889   37.4791 O   0  0  0  0  0  0  0  0  0  0  0  0
   45.2776   54.0504   35.3052 C   0  0  2  0  0  0  0  0  0  0  0  0
   45.5665   58.1452   30.5770 O   0  0  0  0  0  0  0  0  0  0  0  0
   50.0315   56.2178   33.8255 N   0  0  0  0  0  0  0  0  0  0  0  0
   49.8189   55.0036   34.4884 C   0  0  0  0  0  0  0  0  0  0  0  0
   48.4600   54.5741   34.8105 N   0  0  0  0  0  0  0  0  0  0  0  0
   47.3916   55.3572   34.4633 C   0  0  0  0  0  0  0  0  0  0  0  0
   47.6145   56.5786   33.7981 C   0  0  0  0  0  0  0  0  0  0  0  0
   48.9692   57.0064   33.4780 C   0  0  0  0  0  0  0  0  0  0  0  0
   49.2027   58.2745   32.7862 N   0  0  0  0  0  0  0  0  0  0  0  0
   46.3325   57.1941   33.5563 N   0  0  0  0  0  0  0  0  0  0  0  0
   45.3370   56.3374   34.0822 C   0  0  0  0  0  0  0  0  0  0  0  0
   45.9727   55.1938   34.6462 N   0  0  0  0  0  0  0  0  0  0  0  0
  2  1  1  1  0  0  0
  2  3  1  0  0  0  0
  2  5  1  0  0  0  0
  3  4  1  0  0  0  0
  3 17  1  0  0  0  0
  5  6  1  0  0  0  0
  7  6  1  1  0  0  0
  7  8  1  0  0  0  0
  7  9  1  0  0  0  0
 10  9  1  6  0  0  0
 10 11  1  0  0  0  0
 10 12  1  0  0  0  0
 11 16  1  0  0  0  0
 12 13  1  1  0  0  0
 12 14  1  0  0  0  0
 14 15  1  1  0  0  0
 14 16  1  0  0  0  0
 16 27  1  6  0  0  0
 18 19  2  0  0  0  0
 18 23  1  0  0  0  0
 19 20  1  0  0  0  0
 20 21  2  0  0  0  0
 21 22  1  0  0  0  0
 21 27  1  0  0  0  0
 22 23  2  0  0  0  0
 22 25  1  0  0  0  0
 23 24  1  0  0  0  0
 25 26  2  0  0  0  0
 26 27  1  0  0  0  0
M  END
>  <CHROM.1>
-96.67199955,45.47848316,-79.17710610,-49.27286003,-63.17724359,-44.43393907
-92.51303271,45.19741748,55.19107177,33.37832517,0.23140221,-0.45033992,-1.07671729

>  <Name>
ligand

>  <RI>
0

>  <Rbt.Current_Directory>
/home/itssahil/PROJECTS/Mol_Feturizer/New_Systems/rnas/3GX2

>  <Rbt.Executable>
rbdock ($Id: //depot/dev/client3/rdock/2013.1/src/exe/rbdock.cxx#4 $)

>  <Rbt.Library>
libRbt.so (2013.1, Build901 2013/11/27)

>  <Rbt.Parameter_File>
/export/apps/rDock/src/rDock_2013.1_src/data/scripts/dock_solv.prm

>  <Rbt.Receptor>
prm/pocket_docking_8.prm

>  <SCORE>
-11.0997

>  <SCORE.INTER>
-9.29724

>  <SCORE.INTER.CONST>
1

>  <SCORE.INTER.POLAR>
0

>  <SCORE.INTER.ROT>
7

>  <SCORE.INTER.SOLV>
10.7629

>  <SCORE.INTER.VDW>
-18.0525

>  <SCORE.INTER.norm>
-0.344342

>  <SCORE.INTRA>
-1.80243

>  <SCORE.INTRA.DIHEDRAL>
-5.54056

>  <SCORE.INTRA.DIHEDRAL.0>
13.9704

>  <SCORE.INTRA.POLAR>
0

>  <SCORE.INTRA.POLAR.0>
0

>  <SCORE.INTRA.REPUL>
0

>  <SCORE.INTRA.REPUL.0>
0

>  <SCORE.INTRA.SOLV>
3.29121

>  <SCORE.INTRA.SOLV.lig_0>
-70.9758

>  <SCORE.INTRA.VDW>
-0.677759

>  <SCORE.INTRA.VDW.0>
-2.70686

>  <SCORE.INTRA.norm>
-0.0667568

>  <SCORE.RESTR>
0

>  <SCORE.RESTR.CAVITY>
0

>  <SCORE.RESTR.norm>
0

>  <SCORE.SYSTEM>
0

>  <SCORE.SYSTEM.CONST>
0

>  <SCORE.SYSTEM.DIHEDRAL>
0

>  <SCORE.SYSTEM.SOLV>
0

>  <SCORE.SYSTEM.norm>
0

>  <SCORE.heavy>
27

>  <SCORE.norm>
-0.411099

>  <RMSD>
5.395

$$$$
ligand
 OpenBabel11021811473D
libRbt.so/2013.1/901 2013/11/27
 27 29  0  0  0  0  0  0  0  0999 V2000
   48.2364   60.2600   32.6639 N   0  0  0  0  0  0  0  0  0  0  0  0
   47.4108   59.9486   31.4992 C   0  0  2  0  0  0  0  0  0  0  0  0
   46.4311   61.0598   31.1160 C   0  0  0  0  0  0  0  0  0  0  0  0
   45.6352   60.8483   30.2624 O   0  0  0  0  0  0  0  0  0  0  0  0
   46.7544   58.5524   31.5310 C   0  0  0  0  0  0  0  0  0  0  0  0
   45.4262   58.3506   32.3122 C   0  0  0  0  0  0  0  0  0  0  0  0
   44.9145   56.8884   32.4047 C   0  0  2  0  0  0  0  0  0  0  0  0
   43.4960   56.7594   32.0714 N   0  0  0  0  0  0  0  0  0  0  0  0
   45.2878   56.2187   33.7632 C   0  0  0  0  0  0  0  0  0  0  0  0
   46.3632   55.0803   33.7652 C   0  0  1  0  0  0  0  0  0  0  0  0
   46.1455   53.8967   32.9413 O   0  0  0  0  0  0  0  0  0  0  0  0
   47.8294   55.4995   33.4643 C   0  0  1  0  0  0  0  0  0  0  0  0
   48.4957   56.3358   34.4191 O   0  0  0  0  0  0  0  0  0  0  0  0
   48.5329   54.1981   32.9689 C   0  0  1  0  0  0  0  0  0  0  0  0
   49.4913   53.6030   33.8105 O   0  0  0  0  0  0  0  0  0  0  0  0
   47.3598   53.3498   32.4678 C   0  0  2  0  0  0  0  0  0  0  0  0
   46.1677   62.0756   32.0565 O   0  0  0  0  0  0  0  0  0  0  0  0
   46.3112   55.7570   27.7146 N   0  0  0  0  0  0  0  0  0  0  0  0
   46.1639   56.3015   28.9955 C   0  0  0  0  0  0  0  0  0  0  0  0
   46.4961   55.5024   30.1728 N   0  0  0  0  0  0  0  0  0  0  0  0
   46.9538   54.2201   30.0258 C   0  0  0  0  0  0  0  0  0  0  0  0
   47.0973   53.6792   28.7332 C   0  0  0  0  0  0  0  0  0  0  0  0
   46.7653   54.4760   27.5604 C   0  0  0  0  0  0  0  0  0  0  0  0
   46.9147   53.9160   26.2167 N   0  0  0  0  0  0  0  0  0  0  0  0
   47.5887   52.3296   28.8676 N   0  0  0  0  0  0  0  0  0  0  0  0
   47.7374   52.0606   30.2486 C   0  0  0  0  0  0  0  0  0  0  0  0
   47.3512   53.2195   30.9819 N   0  0  0  0  0  0  0  0  0  0  0  0
  2  1  1  1  0  0  0
  2  3  1  0  0  0  0
  2  5  1  0  0  0  0
  3  4  1  0  0  0  0
  3 17  1  0  0  0  0
  5  6  1  0  0  0  0
  7  6  1  1  0  0  0
  7  8  1  0  0  0  0
  7  9  1  0  0  0  0
 10  9  1  6  0  0  0
 10 11  1  0  0  0  0
 10 12  1  0  0  0  0
 11 16  1  0  0  0  0
 12 13  1  1  0  0  0
 12 14  1  0  0  0  0
 14 15  1  1  0  0  0
 14 16  1  0  0  0  0
 16 27  1  6  0  0  0
 18 19  2  0  0  0  0
 18 23  1  0  0  0  0
 19 20  1  0  0  0  0
 20 21  2  0  0  0  0
 21 22  1  0  0  0  0
 21 27  1  0  0  0  0
 22 23  2  0  0  0  0
 22 25  1  0  0  0  0
 23 24  1  0  0  0  0
 25 26  2  0  0  0  0
 26 27  1  0  0  0  0
M  END
>  <CHROM.1>
-173.08110758,83.11832014,-174.24893698,-132.13535355,-110.00355927,-57.56114518
47.57005181,46.79391475,56.16569140,31.29573225,-2.17160327,1.30847373,-2.29885980

>  <Name>
ligand

>  <RI>
0

>  <Rbt.Current_Directory>
/home/itssahil/PROJECTS/Mol_Feturizer/New_Systems/rnas/3GX2

>  <Rbt.Executable>
rbdock ($Id: //depot/dev/client3/rdock/2013.1/src/exe/rbdock.cxx#4 $)

>  <Rbt.Library>
libRbt.so (2013.1, Build901 2013/11/27)

>  <Rbt.Parameter_File>
/export/apps/rDock/src/rDock_2013.1_src/data/scripts/dock_solv.prm

>  <Rbt.Receptor>
prm/pocket_docking_3.prm

>  <SCORE>
-5.59575

>  <SCORE.INTER>
-5.53232

>  <SCORE.INTER.CONST>
1

>  <SCORE.INTER.POLAR>
0

>  <SCORE.INTER.ROT>
7

>  <SCORE.INTER.SOLV>
20.8674

>  <SCORE.INTER.VDW>
-18.9107

>  <SCORE.INTER.norm>
-0.204901

>  <SCORE.INTRA>
-0.0634291

>  <SCORE.INTRA.DIHEDRAL>
2.03606

>  <SCORE.INTRA.DIHEDRAL.0>
13.9704

>  <SCORE.INTRA.POLAR>
0

>  <SCORE.INTRA.POLAR.0>
0

>  <SCORE.INTRA.REPUL>
0

>  <SCORE.INTRA.REPUL.0>
0

>  <SCORE.INTRA.SOLV>
0.464508

>  <SCORE.INTRA.SOLV.lig_0>
-70.9758

>  <SCORE.INTRA.VDW>
-1.31371

>  <SCORE.INTRA.VDW.0>
-2.70686

>  <SCORE.INTRA.norm>
-0.00234923

>  <SCORE.RESTR>
0

>  <SCORE.RESTR.CAVITY>
0

>  <SCORE.RESTR.norm>
0

>  <SCORE.SYSTEM>
0

>  <SCORE.SYSTEM.CONST>
0

>  <SCORE.SYSTEM.DIHEDRAL>
0

>  <SCORE.SYSTEM.SOLV>
0

>  <SCORE.SYSTEM.norm>
0

>  <SCORE.heavy>
27

>  <SCORE.norm>
-0.20725

>  <RMSD>
5.402

$$$$
ligand
 OpenBabel11021811473D
libRbt.so/2013.1/901 2013/11/27
 27 29  0  0  0  0  0  0  0  0999 V2000
   48.3194   53.7104   32.3795 N   0  0  0  0  0  0  0  0  0  0  0  0
   49.0030   53.2400   31.1769 C   0  0  2  0  0  0  0  0  0  0  0  0
   50.0177   54.2345   30.6088 C   0  0  0  0  0  0  0  0  0  0  0  0
   50.1962   55.2570   31.1828 O   0  0  0  0  0  0  0  0  0  0  0  0
   48.0721   52.6480   30.0980 C   0  0  0  0  0  0  0  0  0  0  0  0
   46.8203   53.4502   29.6456 C   0  0  0  0  0  0  0  0  0  0  0  0
   47.1063   54.7793   28.8971 C   0  0  2  0  0  0  0  0  0  0  0  0
   48.0652   54.6220   27.8037 N   0  0  0  0  0  0  0  0  0  0  0  0
   47.4759   55.9376   29.8742 C   0  0  0  0  0  0  0  0  0  0  0  0
   46.3468   56.5486   30.7710 C   0  0  1  0  0  0  0  0  0  0  0  0
   45.5548   55.6630   31.6169 O   0  0  0  0  0  0  0  0  0  0  0  0
   46.7519   57.7213   31.7073 C   0  0  1  0  0  0  0  0  0  0  0  0
   47.1449   58.9584   31.0988 O   0  0  0  0  0  0  0  0  0  0  0  0
   45.6735   57.7352   32.8347 C   0  0  1  0  0  0  0  0  0  0  0  0
   44.7559   58.8021   32.8591 O   0  0  0  0  0  0  0  0  0  0  0  0
   45.1386   56.3000   32.8080 C   0  0  2  0  0  0  0  0  0  0  0  0
   51.0265   53.7485   29.7533 O   0  0  0  0  0  0  0  0  0  0  0  0
   49.2054   54.9032   36.1242 N   0  0  0  0  0  0  0  0  0  0  0  0
   49.2684   55.7436   35.0068 C   0  0  0  0  0  0  0  0  0  0  0  0
   48.0643   56.0102   34.2231 N   0  0  0  0  0  0  0  0  0  0  0  0
   46.8717   55.4403   34.5809 C   0  0  0  0  0  0  0  0  0  0  0  0
   46.8174   54.5943   35.7057 C   0  0  0  0  0  0  0  0  0  0  0  0
   48.0180   54.3284   36.4858 C   0  0  0  0  0  0  0  0  0  0  0  0
   47.9634   53.4505   37.6553 N   0  0  0  0  0  0  0  0  0  0  0  0
   45.4577   54.1355   35.8523 N   0  0  0  0  0  0  0  0  0  0  0  0
   44.6946   54.7081   34.8076 C   0  0  0  0  0  0  0  0  0  0  0  0
   45.5518   55.5208   34.0109 N   0  0  0  0  0  0  0  0  0  0  0  0
  2  1  1  1  0  0  0
  2  3  1  0  0  0  0
  2  5  1  0  0  0  0
  3  4  1  0  0  0  0
  3 17  1  0  0  0  0
  5  6  1  0  0  0  0
  7  6  1  1  0  0  0
  7  8  1  0  0  0  0
  7  9  1  0  0  0  0
 10  9  1  1  0  0  0
 10 11  1  0  0  0  0
 10 12  1  0  0  0  0
 11 16  1  0  0  0  0
 12 13  1  6  0  0  0
 12 14  1  0  0  0  0
 14 15  1  6  0  0  0
 14 16  1  0  0  0  0
 16 27  1  1  0  0  0
 18 19  2  0  0  0  0
 18 23  1  0  0  0  0
 19 20  1  0  0  0  0
 20 21  2  0  0  0  0
 21 22  1  0  0  0  0
 21 27  1  0  0  0  0
 22 23  2  0  0  0  0
 22 25  1  0  0  0  0
 23 24  1  0  0  0  0
 25 26  2  0  0  0  0
 26 27  1  0  0  0  0
M  END
>  <CHROM.1>
2.01218960,50.06701274,66.25774496,49.86933672,-71.72069769,54.21342809,76.00116622
47.40508626,55.29718560,32.49286061,-1.22063420,-0.76771917,1.75287204

>  <Name>
ligand

>  <RI>
0

>  <Rbt.Current_Directory>
/home/itssahil/PROJECTS/Mol_Feturizer/New_Systems/rnas/3GX2

>  <Rbt.Executable>
rbdock ($Id: //depot/dev/client3/rdock/2013.1/src/exe/rbdock.cxx#4 $)

>  <Rbt.Library>
libRbt.so (2013.1, Build901 2013/11/27)

>  <Rbt.Parameter_File>
/export/apps/rDock/src/rDock_2013.1_src/data/scripts/dock_solv.prm

>  <Rbt.Receptor>
prm/pocket_docking_4.prm

>  <SCORE>
-8.77593

>  <SCORE.INTER>
-6.52552

>  <SCORE.INTER.CONST>
1

>  <SCORE.INTER.POLAR>
0

>  <SCORE.INTER.ROT>
7

>  <SCORE.INTER.SOLV>
13.1661

>  <SCORE.INTER.VDW>
-17.0057

>  <SCORE.INTER.norm>
-0.241686

>  <SCORE.INTRA>
-2.25041

>  <SCORE.INTRA.DIHEDRAL>
-7.63507

>  <SCORE.INTRA.DIHEDRAL.0>
13.9704

>  <SCORE.INTRA.POLAR>
0

>  <SCORE.INTRA.POLAR.0>
0

>  <SCORE.INTRA.REPUL>
0

>  <SCORE.INTRA.REPUL.0>
0

>  <SCORE.INTRA.SOLV>
6.95291

>  <SCORE.INTRA.SOLV.lig_0>
-70.9758

>  <SCORE.INTRA.VDW>
-1.90933

>  <SCORE.INTRA.VDW.0>
-2.70686

>  <SCORE.INTRA.norm>
-0.0833486

>  <SCORE.RESTR>
0

>  <SCORE.RESTR.CAVITY>
0

>  <SCORE.RESTR.norm>
0

>  <SCORE.SYSTEM>
0

>  <SCORE.SYSTEM.CONST>
0

>  <SCORE.SYSTEM.DIHEDRAL>
0

>  <SCORE.SYSTEM.SOLV>
0

>  <SCORE.SYSTEM.norm>
0

>  <SCORE.heavy>
27

>  <SCORE.norm>
-0.325034

>  <RMSD>
5.404

$$$$
ligand
 OpenBabel11021811473D
libRbt.so/2013.1/901 2013/11/27
 27 29  0  0  0  0  0  0  0  0999 V2000
   51.1918   51.6527   27.0879 N   0  0  0  0  0  0  0  0  0  0  0  0
   50.3543   52.8353   26.9006 C   0  0  2  0  0  0  0  0  0  0  0  0
   51.0857   54.1589   27.1340 C   0  0  0  0  0  0  0  0  0  0  0  0
   50.5605   55.1673   26.7962 O   0  0  0  0  0  0  0  0  0  0  0  0
   48.9846   52.7719   27.6083 C   0  0  0  0  0  0  0  0  0  0  0  0
   48.9212   52.8589   29.1586 C   0  0  0  0  0  0  0  0  0  0  0  0
   47.4992   52.8114   29.7785 C   0  0  2  0  0  0  0  0  0  0  0  0
   46.5580   53.7129   29.1140 N   0  0  0  0  0  0  0  0  0  0  0  0
   47.5261   52.9878   31.3281 C   0  0  0  0  0  0  0  0  0  0  0  0
   47.8756   54.3972   31.9145 C   0  0  1  0  0  0  0  0  0  0  0  0
   47.2393   54.8281   33.1541 O   0  0  0  0  0  0  0  0  0  0  0  0
   49.3826   54.7182   32.1188 C   0  0  1  0  0  0  0  0  0  0  0  0
   50.2065   54.8339   30.9513 O   0  0  0  0  0  0  0  0  0  0  0  0
   49.4174   55.8506   33.1914 C   0  0  1  0  0  0  0  0  0  0  0  0
   49.7973   57.1413   32.7784 O   0  0  0  0  0  0  0  0  0  0  0  0
   48.0804   55.6696   33.9170 C   0  0  2  0  0  0  0  0  0  0  0  0
   52.0791   54.2094   28.1321 O   0  0  0  0  0  0  0  0  0  0  0  0
   45.6974   53.4174   38.2455 N   0  0  0  0  0  0  0  0  0  0  0  0
   45.0961   53.7790   37.0346 C   0  0  0  0  0  0  0  0  0  0  0  0
   45.8975   54.3791   35.9703 N   0  0  0  0  0  0  0  0  0  0  0  0
   47.2384   54.5873   36.1543 C   0  0  0  0  0  0  0  0  0  0  0  0
   47.8353   54.2221   37.3767 C   0  0  0  0  0  0  0  0  0  0  0  0
   47.0359   53.6249   38.4372 C   0  0  0  0  0  0  0  0  0  0  0  0
   47.6544   53.2440   39.7076 N   0  0  0  0  0  0  0  0  0  0  0  0
   49.2383   54.5493   37.3021 N   0  0  0  0  0  0  0  0  0  0  0  0
   49.4816   55.1158   36.0288 C   0  0  0  0  0  0  0  0  0  0  0  0
   48.2562   55.1461   35.3027 N   0  0  0  0  0  0  0  0  0  0  0  0
  2  1  1  1  0  0  0
  2  3  1  0  0  0  0
  2  5  1  0  0  0  0
  3  4  1  0  0  0  0
  3 17  1  0  0  0  0
  5  6  1  0  0  0  0
  7  6  1  6  0  0  0
  7  8  1  0  0  0  0
  7  9  1  0  0  0  0
 10  9  1  1  0  0  0
 10 11  1  0  0  0  0
 10 12  1  0  0  0  0
 11 16  1  0  0  0  0
 12 13  1  6  0  0  0
 12 14  1  0  0  0  0
 14 15  1  6  0  0  0
 14 16  1  0  0  0  0
 16 27  1  1  0  0  0
 18 19  2  0  0  0  0
 18 23  1  0  0  0  0
 19 20  1  0  0  0  0
 20 21  2  0  0  0  0
 21 22  1  0  0  0  0
 21 27  1  0  0  0  0
 22 23  2  0  0  0  0
 22 25  1  0  0  0  0
 23 24  1  0  0  0  0
 25 26  2  0  0  0  0
 26 27  1  0  0  0  0
M  END
>  <CHROM.1>
167.76216560,70.52437141,178.97395433,-47.43130102,71.15624462,146.20064203
-42.22512861,48.58576445,54.19552676,32.54767141,1.21236506,-0.56860843,-1.83331626

>  <Name>
ligand

>  <RI>
0

>  <Rbt.Current_Directory>
/home/itssahil/PROJECTS/Mol_Feturizer/New_Systems/rnas/3GX2

>  <Rbt.Executable>
rbdock ($Id: //depot/dev/client3/rdock/2013.1/src/exe/rbdock.cxx#4 $)

>  <Rbt.Library>
libRbt.so (2013.1, Build901 2013/11/27)

>  <Rbt.Parameter_File>
/export/apps/rDock/src/rDock_2013.1_src/data/scripts/dock_solv.prm

>  <Rbt.Receptor>
prm/pocket_docking_6.prm

>  <SCORE>
-9.91221

>  <SCORE.INTER>
-8.94333

>  <SCORE.INTER.CONST>
1

>  <SCORE.INTER.POLAR>
0

>  <SCORE.INTER.ROT>
7

>  <SCORE.INTER.SOLV>
13.7466

>  <SCORE.INTER.VDW>
-18.8111

>  <SCORE.INTER.norm>
-0.331235

>  <SCORE.INTRA>
-0.968876

>  <SCORE.INTRA.DIHEDRAL>
-4.70223

>  <SCORE.INTRA.DIHEDRAL.0>
13.9704

>  <SCORE.INTRA.POLAR>
0

>  <SCORE.INTRA.POLAR.0>
0

>  <SCORE.INTRA.REPUL>
0

>  <SCORE.INTRA.REPUL.0>
0

>  <SCORE.INTRA.SOLV>
1.87569

>  <SCORE.INTRA.SOLV.lig_0>
-70.9758

>  <SCORE.INTRA.VDW>
0.444394

>  <SCORE.INTRA.VDW.0>
-2.70686

>  <SCORE.INTRA.norm>
-0.0358843

>  <SCORE.RESTR>
0

>  <SCORE.RESTR.CAVITY>
0

>  <SCORE.RESTR.norm>
0

>  <SCORE.SYSTEM>
0

>  <SCORE.SYSTEM.CONST>
0

>  <SCORE.SYSTEM.DIHEDRAL>
0

>  <SCORE.SYSTEM.SOLV>
0

>  <SCORE.SYSTEM.norm>
0

>  <SCORE.heavy>
27

>  <SCORE.norm>
-0.367119

>  <RMSD>
5.406

$$$$
ligand
 OpenBabel11021811473D
libRbt.so/2013.1/901 2013/11/27
 27 29  0  0  0  0  0  0  0  0999 V2000
   45.4321   53.7924   31.7478 N   0  0  0  0  0  0  0  0  0  0  0  0
   46.7734   54.2740   31.4254 C   0  0  2  0  0  0  0  0  0  0  0  0
   47.5254   53.3962   30.4228 C   0  0  0  0  0  0  0  0  0  0  0  0
   47.5160   52.2200   30.5760 O   0  0  0  0  0  0  0  0  0  0  0  0
   47.6303   54.6583   32.6499 C   0  0  0  0  0  0  0  0  0  0  0  0
   49.0927   55.1393   32.4379 C   0  0  0  0  0  0  0  0  0  0  0  0
   49.7817   55.7679   33.6784 C   0  0  2  0  0  0  0  0  0  0  0  0
   49.7917   54.8753   34.8374 N   0  0  0  0  0  0  0  0  0  0  0  0
   49.2258   57.1885   34.0040 C   0  0  0  0  0  0  0  0  0  0  0  0
   48.8665   58.1418   32.8147 C   0  0  1  0  0  0  0  0  0  0  0  0
   49.7536   58.1997   31.6584 O   0  0  0  0  0  0  0  0  0  0  0  0
   47.4433   57.9992   32.2064 C   0  0  1  0  0  0  0  0  0  0  0  0
   46.3251   58.3584   33.0285 O   0  0  0  0  0  0  0  0  0  0  0  0
   47.5528   58.5917   30.7673 C   0  0  1  0  0  0  0  0  0  0  0  0
   46.9083   59.8151   30.5050 O   0  0  0  0  0  0  0  0  0  0  0  0
   49.0485   58.4632   30.4621 C   0  0  2  0  0  0  0  0  0  0  0  0
   47.7802   53.9137   29.1371 O   0  0  0  0  0  0  0  0  0  0  0  0
   47.8619   56.5536   25.5191 N   0  0  0  0  0  0  0  0  0  0  0  0
   47.3054   57.6678   26.1576 C   0  0  0  0  0  0  0  0  0  0  0  0
   47.7478   58.0385   27.4999 N   0  0  0  0  0  0  0  0  0  0  0  0
   48.7086   57.2982   28.1355 C   0  0  0  0  0  0  0  0  0  0  0  0
   49.2622   56.1773   27.4865 C   0  0  0  0  0  0  0  0  0  0  0  0
   48.8203   55.8080   26.1491 C   0  0  0  0  0  0  0  0  0  0  0  0
   49.3949   54.6443   25.4729 N   0  0  0  0  0  0  0  0  0  0  0  0
   50.2369   55.5873   28.3713 N   0  0  0  0  0  0  0  0  0  0  0  0
   50.2647   56.3580   29.5574 C   0  0  0  0  0  0  0  0  0  0  0  0
   49.3270   57.4230   29.4299 N   0  0  0  0  0  0  0  0  0  0  0  0
  2  1  1  1  0  0  0
  2  3  1  0  0  0  0
  2  5  1  0  0  0  0
  3  4  1  0  0  0  0
  3 17  1  0  0  0  0
  5  6  1  0  0  0  0
  7  6  1  6  0  0  0
  7  8  1  0  0  0  0
  7  9  1  0  0  0  0
 10  9  1  1  0  0  0
 10 11  1  0  0  0  0
 10 12  1  0  0  0  0
 11 16  1  0  0  0  0
 12 13  1  1  0  0  0
 12 14  1  0  0  0  0
 14 15  1  1  0  0  0
 14 16  1  0  0  0  0
 16 27  1  6  0  0  0
 18 19  2  0  0  0  0
 18 23  1  0  0  0  0
 19 20  1  0  0  0  0
 20 21  2  0  0  0  0
 21 22  1  0  0  0  0
 21 27  1  0  0  0  0
 22 23  2  0  0  0  0
 22 25  1  0  0  0  0
 23 24  1  0  0  0  0
 25 26  2  0  0  0  0
 26 27  1  0  0  0  0
M  END
>  <CHROM.1>
-45.86692342,177.95633821,168.30156368,56.38154220,-37.82052206,-41.07734249
174.52028527,48.31853038,56.29828166,30.29429553,1.98936829,1.50095709,1.14143899

>  <Name>
ligand

>  <RI>
0

>  <Rbt.Current_Directory>
/home/itssahil/PROJECTS/Mol_Feturizer/New_Systems/rnas/3GX2

>  <Rbt.Executable>
rbdock ($Id: //depot/dev/client3/rdock/2013.1/src/exe/rbdock.cxx#4 $)

>  <Rbt.Library>
libRbt.so (2013.1, Build901 2013/11/27)

>  <Rbt.Parameter_File>
/export/apps/rDock/src/rDock_2013.1_src/data/scripts/dock_solv.prm

>  <Rbt.Receptor>
prm/pocket_docking_4.prm

>  <SCORE>
-11.7333

>  <SCORE.INTER>
-7.97589

>  <SCORE.INTER.CONST>
1

>  <SCORE.INTER.POLAR>
0

>  <SCORE.INTER.ROT>
7

>  <SCORE.INTER.SOLV>
13.2593

>  <SCORE.INTER.VDW>
-18.0037

>  <SCORE.INTER.norm>
-0.295403

>  <SCORE.INTRA>
-3.75739

>  <SCORE.INTRA.DIHEDRAL>
-5.92857

>  <SCORE.INTRA.DIHEDRAL.0>
13.9704

>  <SCORE.INTRA.POLAR>
0

>  <SCORE.INTRA.POLAR.0>
0

>  <SCORE.INTRA.REPUL>
0

>  <SCORE.INTRA.REPUL.0>
0

>  <SCORE.INTRA.SOLV>
0.75399

>  <SCORE.INTRA.SOLV.lig_0>
-70.9758

>  <SCORE.INTRA.VDW>
-1.1701

>  <SCORE.INTRA.VDW.0>
-2.70686

>  <SCORE.INTRA.norm>
-0.139163

>  <SCORE.RESTR>
0

>  <SCORE.RESTR.CAVITY>
0

>  <SCORE.RESTR.norm>
0

>  <SCORE.SYSTEM>
0

>  <SCORE.SYSTEM.CONST>
0

>  <SCORE.SYSTEM.DIHEDRAL>
0

>  <SCORE.SYSTEM.SOLV>
0

>  <SCORE.SYSTEM.norm>
0

>  <SCORE.heavy>
27

>  <SCORE.norm>
-0.434566

>  <RMSD>
5.412

$$$$
ligand
 OpenBabel11021811473D
libRbt.so/2013.1/901 2013/11/27
 27 29  0  0  0  0  0  0  0  0999 V2000
   46.5176   60.2400   32.0659 N   0  0  0  0  0  0  0  0  0  0  0  0
   46.9111   59.6154   30.8050 C   0  0  2  0  0  0  0  0  0  0  0  0
   46.0161   58.4483   30.3828 C   0  0  0  0  0  0  0  0  0  0  0  0
   46.2084   57.9342   29.3314 O   0  0  0  0  0  0  0  0  0  0  0  0
   48.4156   59.2923   30.6893 C   0  0  0  0  0  0  0  0  0  0  0  0
   49.0248   58.1666   31.5706 C   0  0  0  0  0  0  0  0  0  0  0  0
   49.0285   58.4350   33.0991 C   0  0  2  0  0  0  0  0  0  0  0  0
   49.6822   59.6946   33.4544 N   0  0  0  0  0  0  0  0  0  0  0  0
   49.5663   57.2158   33.9099 C   0  0  0  0  0  0  0  0  0  0  0  0
   48.6670   55.9390   34.0253 C   0  0  1  0  0  0  0  0  0  0  0  0
   47.8314   55.5545   32.8934 O   0  0  0  0  0  0  0  0  0  0  0  0
   49.3709   54.6213   34.4545 C   0  0  1  0  0  0  0  0  0  0  0  0
   49.9034   54.5493   35.7835 O   0  0  0  0  0  0  0  0  0  0  0  0
   48.4428   53.4767   33.9422 C   0  0  1  0  0  0  0  0  0  0  0  0
   47.7332   52.7236   34.8963 O   0  0  0  0  0  0  0  0  0  0  0  0
   47.6666   54.1533   32.8080 C   0  0  2  0  0  0  0  0  0  0  0  0
   45.3482   57.7182   31.3861 O   0  0  0  0  0  0  0  0  0  0  0  0
   50.7967   54.8870   28.4317 N   0  0  0  0  0  0  0  0  0  0  0  0
   50.7333   55.6887   29.5772 C   0  0  0  0  0  0  0  0  0  0  0  0
   49.8251   55.3375   30.6666 N   0  0  0  0  0  0  0  0  0  0  0  0
   49.0355   54.2228   30.5703 C   0  0  0  0  0  0  0  0  0  0  0  0
   49.1041   53.4225   29.4132 C   0  0  0  0  0  0  0  0  0  0  0  0
   50.0089   53.7736   28.3276 C   0  0  0  0  0  0  0  0  0  0  0  0
   50.0823   52.9429   27.1251 N   0  0  0  0  0  0  0  0  0  0  0  0
   48.1777   52.3284   29.5733 N   0  0  0  0  0  0  0  0  0  0  0  0
   47.5493   52.4764   30.8322 C   0  0  0  0  0  0  0  0  0  0  0  0
   48.0684   53.6424   31.4655 N   0  0  0  0  0  0  0  0  0  0  0  0
  2  1  1  1  0  0  0
  2  3  1  0  0  0  0
  2  5  1  0  0  0  0
  3  4  1  0  0  0  0
  3 17  1  0  0  0  0
  5  6  1  0  0  0  0
  7  6  1  6  0  0  0
  7  8  1  0  0  0  0
  7  9  1  0  0  0  0
 10  9  1  6  0  0  0
 10 11  1  0  0  0  0
 10 12  1  0  0  0  0
 11 16  1  0  0  0  0
 12 13  1  1  0  0  0
 12 14  1  0  0  0  0
 14 15  1  1  0  0  0
 14 16  1  0  0  0  0
 16 27  1  6  0  0  0
 18 19  2  0  0  0  0
 18 23  1  0  0  0  0
 19 20  1  0  0  0  0
 20 21  2  0  0  0  0
 21 22  1  0  0  0  0
 21 27  1  0  0  0  0
 22 23  2  0  0  0  0
 22 25  1  0  0  0  0
 23 24  1  0  0  0  0
 25 26  2  0  0  0  0
 26 27  1  0  0  0  0
M  END
>  <CHROM.1>
175.33472350,69.37300492,-65.84441712,-54.68120458,-72.09711590,35.17531954
27.68632630,48.46673018,55.83357176,31.59672053,2.93376965,-1.30484974,1.63137774

>  <Name>
ligand

>  <RI>
0

>  <Rbt.Current_Directory>
/home/itssahil/PROJECTS/Mol_Feturizer/New_Systems/rnas/3GX2

>  <Rbt.Executable>
rbdock ($Id: //depot/dev/client3/rdock/2013.1/src/exe/rbdock.cxx#4 $)

>  <Rbt.Library>
libRbt.so (2013.1, Build901 2013/11/27)

>  <Rbt.Parameter_File>
/export/apps/rDock/src/rDock_2013.1_src/data/scripts/dock_solv.prm

>  <Rbt.Receptor>
prm/pocket_docking_3.prm

>  <SCORE>
-12.1895

>  <SCORE.INTER>
-9.38568

>  <SCORE.INTER.CONST>
1

>  <SCORE.INTER.POLAR>
0

>  <SCORE.INTER.ROT>
7

>  <SCORE.INTER.SOLV>
17.8201

>  <SCORE.INTER.VDW>
-20.4638

>  <SCORE.INTER.norm>
-0.347618

>  <SCORE.INTRA>
-2.80382

>  <SCORE.INTRA.DIHEDRAL>
-6.44786

>  <SCORE.INTRA.DIHEDRAL.0>
13.9704

>  <SCORE.INTRA.POLAR>
0

>  <SCORE.INTRA.POLAR.0>
0

>  <SCORE.INTRA.REPUL>
0

>  <SCORE.INTRA.REPUL.0>
0

>  <SCORE.INTRA.SOLV>
3.1514

>  <SCORE.INTRA.SOLV.lig_0>
-70.9758

>  <SCORE.INTRA.VDW>
-1.15559

>  <SCORE.INTRA.VDW.0>
-2.70686

>  <SCORE.INTRA.norm>
-0.103845

>  <SCORE.RESTR>
0

>  <SCORE.RESTR.CAVITY>
0

>  <SCORE.RESTR.norm>
0

>  <SCORE.SYSTEM>
0

>  <SCORE.SYSTEM.CONST>
0

>  <SCORE.SYSTEM.DIHEDRAL>
0

>  <SCORE.SYSTEM.SOLV>
0

>  <SCORE.SYSTEM.norm>
0

>  <SCORE.heavy>
27

>  <SCORE.norm>
-0.451463

>  <RMSD>
5.415

$$$$
ligand
 OpenBabel11021811473D
libRbt.so/2013.1/901 2013/11/27
 27 29  0  0  0  0  0  0  0  0999 V2000
   49.6136   59.8659   32.7779 N   0  0  0  0  0  0  0  0  0  0  0  0
   49.0775   59.3019   31.5411 C   0  0  2  0  0  0  0  0  0  0  0  0
   47.6377   59.7223   31.2385 C   0  0  0  0  0  0  0  0  0  0  0  0
   47.2012   59.5205   30.1542 O   0  0  0  0  0  0  0  0  0  0  0  0
   49.3097   57.7858   31.3721 C   0  0  0  0  0  0  0  0  0  0  0  0
   48.4263   56.9843   30.3759 C   0  0  0  0  0  0  0  0  0  0  0  0
   48.8051   57.1231   28.8774 C   0  0  2  0  0  0  0  0  0  0  0  0
   47.6819   56.8557   27.9791 N   0  0  0  0  0  0  0  0  0  0  0  0
   50.0857   56.3093   28.5158 C   0  0  0  0  0  0  0  0  0  0  0  0
   50.1704   54.8106   28.9623 C   0  0  1  0  0  0  0  0  0  0  0  0
   50.1331   54.4905   30.3847 O   0  0  0  0  0  0  0  0  0  0  0  0
   49.1552   53.8273   28.3154 C   0  0  1  0  0  0  0  0  0  0  0  0
   49.2743   53.5712   26.9100 O   0  0  0  0  0  0  0  0  0  0  0  0
   49.0649   52.6241   29.3045 C   0  0  1  0  0  0  0  0  0  0  0  0
   49.6217   51.3953   28.9036 O   0  0  0  0  0  0  0  0  0  0  0  0
   49.5161   53.2430   30.6312 C   0  0  2  0  0  0  0  0  0  0  0  0
   46.7423   59.8731   32.3161 O   0  0  0  0  0  0  0  0  0  0  0  0
   48.0378   54.4945   35.7043 N   0  0  0  0  0  0  0  0  0  0  0  0
   49.3301   54.5046   35.1671 C   0  0  0  0  0  0  0  0  0  0  0  0
   49.5444   54.1351   33.7697 N   0  0  0  0  0  0  0  0  0  0  0  0
   48.4818   53.7798   32.9824 C   0  0  0  0  0  0  0  0  0  0  0  0
   47.1847   53.7704   33.5315 C   0  0  0  0  0  0  0  0  0  0  0  0
   46.9720   54.1381   34.9243 C   0  0  0  0  0  0  0  0  0  0  0  0
   45.6251   54.1299   35.4963 N   0  0  0  0  0  0  0  0  0  0  0  0
   46.2664   53.3619   32.4967 N   0  0  0  0  0  0  0  0  0  0  0  0
   47.0186   53.1229   31.3226 C   0  0  0  0  0  0  0  0  0  0  0  0
   48.3921   53.3781   31.6025 N   0  0  0  0  0  0  0  0  0  0  0  0
  2  1  1  1  0  0  0
  2  3  1  0  0  0  0
  2  5  1  0  0  0  0
  3  4  1  0  0  0  0
  3 17  1  0  0  0  0
  5  6  1  0  0  0  0
  7  6  1  1  0  0  0
  7  8  1  0  0  0  0
  7  9  1  0  0  0  0
 10  9  1  1  0  0  0
 10 11  1  0  0  0  0
 10 12  1  0  0  0  0
 11 16  1  0  0  0  0
 12 13  1  6  0  0  0
 12 14  1  0  0  0  0
 14 15  1  6  0  0  0
 14 16  1  0  0  0  0
 16 27  1  1  0  0  0
 18 19  2  0  0  0  0
 18 23  1  0  0  0  0
 19 20  1  0  0  0  0
 20 21  2  0  0  0  0
 21 22  1  0  0  0  0
 21 27  1  0  0  0  0
 22 23  2  0  0  0  0
 22 25  1  0  0  0  0
 23 24  1  0  0  0  0
 25 26  2  0  0  0  0
 26 27  1  0  0  0  0
M  END
>  <CHROM.1>
166.48530987,160.30560586,78.32947437,-155.54333776,49.53176171,-61.60232481
-64.12208347,48.46845567,55.45596127,31.24081017,-2.14724151,-1.28035470
2.90985548

>  <Name>
ligand

>  <RI>
0

>  <Rbt.Current_Directory>
/home/itssahil/PROJECTS/Mol_Feturizer/New_Systems/rnas/3GX2

>  <Rbt.Executable>
rbdock ($Id: //depot/dev/client3/rdock/2013.1/src/exe/rbdock.cxx#4 $)

>  <Rbt.Library>
libRbt.so (2013.1, Build901 2013/11/27)

>  <Rbt.Parameter_File>
/export/apps/rDock/src/rDock_2013.1_src/data/scripts/dock_solv.prm

>  <Rbt.Receptor>
prm/pocket_docking_3.prm

>  <SCORE>
-7.28987

>  <SCORE.INTER>
-6.87329

>  <SCORE.INTER.CONST>
1

>  <SCORE.INTER.POLAR>
0

>  <SCORE.INTER.ROT>
7

>  <SCORE.INTER.SOLV>
15.545

>  <SCORE.INTER.VDW>
-18.0305

>  <SCORE.INTER.norm>
-0.254566

>  <SCORE.INTRA>
-0.416582

>  <SCORE.INTRA.DIHEDRAL>
-4.44144

>  <SCORE.INTRA.DIHEDRAL.0>
13.9704

>  <SCORE.INTRA.POLAR>
0

>  <SCORE.INTRA.POLAR.0>
0

>  <SCORE.INTRA.REPUL>
0

>  <SCORE.INTRA.REPUL.0>
0

>  <SCORE.INTRA.SOLV>
2.29107

>  <SCORE.INTRA.SOLV.lig_0>
-70.9758

>  <SCORE.INTRA.VDW>
0.658606

>  <SCORE.INTRA.VDW.0>
-2.70686

>  <SCORE.INTRA.norm>
-0.015429

>  <SCORE.RESTR>
0

>  <SCORE.RESTR.CAVITY>
0

>  <SCORE.RESTR.norm>
0

>  <SCORE.SYSTEM>
0

>  <SCORE.SYSTEM.CONST>
0

>  <SCORE.SYSTEM.DIHEDRAL>
0

>  <SCORE.SYSTEM.SOLV>
0

>  <SCORE.SYSTEM.norm>
0

>  <SCORE.heavy>
27

>  <SCORE.norm>
-0.269995

>  <RMSD>
5.441

$$$$
ligand
 OpenBabel11021811473D
libRbt.so/2013.1/901 2013/11/27
 27 29  0  0  0  0  0  0  0  0999 V2000
   49.5884   53.3607   27.0510 N   0  0  0  0  0  0  0  0  0  0  0  0
   51.0163   53.6663   26.9984 C   0  0  2  0  0  0  0  0  0  0  0  0
   51.8726   52.5396   26.4166 C   0  0  0  0  0  0  0  0  0  0  0  0
   51.5460   51.4164   26.6127 O   0  0  0  0  0  0  0  0  0  0  0  0
   51.5972   54.2514   28.3027 C   0  0  0  0  0  0  0  0  0  0  0  0
   51.1866   55.6829   28.7470 C   0  0  0  0  0  0  0  0  0  0  0  0
   49.7352   55.8341   29.2751 C   0  0  2  0  0  0  0  0  0  0  0  0
   48.7511   55.9782   28.2024 N   0  0  0  0  0  0  0  0  0  0  0  0
   49.6181   56.9423   30.3667 C   0  0  0  0  0  0  0  0  0  0  0  0
   48.1900   57.4037   30.8138 C   0  0  1  0  0  0  0  0  0  0  0  0
   47.2299   56.4032   31.2658 O   0  0  0  0  0  0  0  0  0  0  0  0
   48.1192   58.5243   31.8886 C   0  0  1  0  0  0  0  0  0  0  0  0
   48.5911   59.8289   31.5272 O   0  0  0  0  0  0  0  0  0  0  0  0
   46.7092   58.3773   32.5399 C   0  0  1  0  0  0  0  0  0  0  0  0
   45.7517   59.3746   32.2764 O   0  0  0  0  0  0  0  0  0  0  0  0
   46.3539   56.9157   32.2496 C   0  0  2  0  0  0  0  0  0  0  0  0
   52.6960   52.8262   25.3095 O   0  0  0  0  0  0  0  0  0  0  0  0
   49.4033   54.4163   35.9834 N   0  0  0  0  0  0  0  0  0  0  0  0
   49.8442   55.1717   34.8908 C   0  0  0  0  0  0  0  0  0  0  0  0
   48.8744   55.7764   33.9804 N   0  0  0  0  0  0  0  0  0  0  0  0
   47.5326   55.6069   34.1948 C   0  0  0  0  0  0  0  0  0  0  0  0
   47.0974   54.8435   35.2956 C   0  0  0  0  0  0  0  0  0  0  0  0
   48.0645   54.2406   36.2021 C   0  0  0  0  0  0  0  0  0  0  0  0
   47.6142   53.4480   37.3469 N   0  0  0  0  0  0  0  0  0  0  0  0
   45.6550   54.8262   35.2828 N   0  0  0  0  0  0  0  0  0  0  0  0
   45.2248   55.5812   34.1664 C   0  0  0  0  0  0  0  0  0  0  0  0
   46.3725   56.0746   33.4813 N   0  0  0  0  0  0  0  0  0  0  0  0
  2  1  1  1  0  0  0
  2  3  1  0  0  0  0
  2  5  1  0  0  0  0
  3  4  1  0  0  0  0
  3 17  1  0  0  0  0
  5  6  1  0  0  0  0
  7  6  1  6  0  0  0
  7  8  1  0  0  0  0
  7  9  1  0  0  0  0
 10  9  1  1  0  0  0
 10 11  1  0  0  0  0
 10 12  1  0  0  0  0
 11 16  1  0  0  0  0
 12 13  1  6  0  0  0
 12 14  1  0  0  0  0
 14 15  1  6  0  0  0
 14 16  1  0  0  0  0
 16 27  1  1  0  0  0
 18 19  2  0  0  0  0
 18 23  1  0  0  0  0
 19 20  1  0  0  0  0
 20 21  2  0  0  0  0
 21 22  1  0  0  0  0
 21 27  1  0  0  0  0
 22 23  2  0  0  0  0
 22 25  1  0  0  0  0
 23 24  1  0  0  0  0
 25 26  2  0  0  0  0
 26 27  1  0  0  0  0
M  END
>  <CHROM.1>
-33.47385303,-69.24141772,72.12328804,-82.37482177,168.94805686,53.77735331
48.74424762,48.71561055,55.54161877,31.38427389,-0.53422370,-1.00608265,2.21776843

>  <Name>
ligand

>  <RI>
0

>  <Rbt.Current_Directory>
/home/itssahil/PROJECTS/Mol_Feturizer/New_Systems/rnas/3GX2

>  <Rbt.Executable>
rbdock ($Id: //depot/dev/client3/rdock/2013.1/src/exe/rbdock.cxx#4 $)

>  <Rbt.Library>
libRbt.so (2013.1, Build901 2013/11/27)

>  <Rbt.Parameter_File>
/export/apps/rDock/src/rDock_2013.1_src/data/scripts/dock_solv.prm

>  <Rbt.Receptor>
prm/pocket_docking_7.prm

>  <SCORE>
-11.5831

>  <SCORE.INTER>
-9.91619

>  <SCORE.INTER.CONST>
1

>  <SCORE.INTER.POLAR>
0

>  <SCORE.INTER.ROT>
7

>  <SCORE.INTER.SOLV>
11.3437

>  <SCORE.INTER.VDW>
-18.6587

>  <SCORE.INTER.norm>
-0.367266

>  <SCORE.INTRA>
-1.66691

>  <SCORE.INTRA.DIHEDRAL>
-6.38724

>  <SCORE.INTRA.DIHEDRAL.0>
13.9704

>  <SCORE.INTRA.POLAR>
0

>  <SCORE.INTRA.POLAR.0>
0

>  <SCORE.INTRA.REPUL>
0

>  <SCORE.INTRA.REPUL.0>
0

>  <SCORE.INTRA.SOLV>
4.26934

>  <SCORE.INTRA.SOLV.lig_0>
-70.9758

>  <SCORE.INTRA.VDW>
-0.607961

>  <SCORE.INTRA.VDW.0>
-2.70686

>  <SCORE.INTRA.norm>
-0.0617375

>  <SCORE.RESTR>
0

>  <SCORE.RESTR.CAVITY>
0

>  <SCORE.RESTR.norm>
0

>  <SCORE.SYSTEM>
0

>  <SCORE.SYSTEM.CONST>
0

>  <SCORE.SYSTEM.DIHEDRAL>
0

>  <SCORE.SYSTEM.SOLV>
0

>  <SCORE.SYSTEM.norm>
0

>  <SCORE.heavy>
27

>  <SCORE.norm>
-0.429004

>  <RMSD>
5.444

$$$$
ligand
 OpenBabel11021811473D
libRbt.so/2013.1/901 2013/11/27
 27 29  0  0  0  0  0  0  0  0999 V2000
   45.1828   54.1134   36.1570 N   0  0  0  0  0  0  0  0  0  0  0  0
   46.1540   54.3891   35.1006 C   0  0  2  0  0  0  0  0  0  0  0  0
   45.8594   53.6712   33.7819 C   0  0  0  0  0  0  0  0  0  0  0  0
   44.9250   52.9428   33.7260 O   0  0  0  0  0  0  0  0  0  0  0  0
   47.6294   54.2669   35.5356 C   0  0  0  0  0  0  0  0  0  0  0  0
   48.7141   55.1025   34.8005 C   0  0  0  0  0  0  0  0  0  0  0  0
   48.9748   54.7149   33.3206 C   0  0  2  0  0  0  0  0  0  0  0  0
   49.4332   53.3343   33.1658 N   0  0  0  0  0  0  0  0  0  0  0  0
   49.8888   55.7488   32.5933 C   0  0  0  0  0  0  0  0  0  0  0  0
   49.2650   57.1138   32.1459 C   0  0  1  0  0  0  0  0  0  0  0  0
   48.1748   57.1126   31.1771 O   0  0  0  0  0  0  0  0  0  0  0  0
   48.7820   58.0678   33.2739 C   0  0  1  0  0  0  0  0  0  0  0  0
   49.7729   58.6339   34.1416 O   0  0  0  0  0  0  0  0  0  0  0  0
   47.7371   59.0068   32.5953 C   0  0  1  0  0  0  0  0  0  0  0  0
   48.0871   60.3565   32.4037 O   0  0  0  0  0  0  0  0  0  0  0  0
   47.2768   58.1834   31.3883 C   0  0  2  0  0  0  0  0  0  0  0  0
   46.3617   54.2275   32.5886 O   0  0  0  0  0  0  0  0  0  0  0  0
   42.6946   56.7100   28.8743 N   0  0  0  0  0  0  0  0  0  0  0  0
   43.8868   57.1461   28.2848 C   0  0  0  0  0  0  0  0  0  0  0  0
   45.0287   57.5050   29.1228 N   0  0  0  0  0  0  0  0  0  0  0  0
   44.9360   57.4139   30.4860 C   0  0  0  0  0  0  0  0  0  0  0  0
   43.7319   56.9759   31.0712 C   0  0  0  0  0  0  0  0  0  0  0  0
   42.5940   56.6191   30.2355 C   0  0  0  0  0  0  0  0  0  0  0  0
   41.3426   56.1630   30.8416 N   0  0  0  0  0  0  0  0  0  0  0  0
   43.9074   56.9756   32.5031 N   0  0  0  0  0  0  0  0  0  0  0  0
   45.2230   57.4186   32.7762 C   0  0  0  0  0  0  0  0  0  0  0  0
   45.8764   57.6930   31.5402 N   0  0  0  0  0  0  0  0  0  0  0  0
  2  1  1  1  0  0  0
  2  3  1  0  0  0  0
  2  5  1  0  0  0  0
  3  4  1  0  0  0  0
  3 17  1  0  0  0  0
  5  6  1  0  0  0  0
  7  6  1  1  0  0  0
  7  8  1  0  0  0  0
  7  9  1  0  0  0  0
 10  9  1  1  0  0  0
 10 11  1  0  0  0  0
 10 12  1  0  0  0  0
 11 16  1  0  0  0  0
 12 13  1  6  0  0  0
 12 14  1  0  0  0  0
 14 15  1  6  0  0  0
 14 16  1  0  0  0  0
 16 27  1  1  0  0  0
 18 19  2  0  0  0  0
 18 23  1  0  0  0  0
 19 20  1  0  0  0  0
 20 21  2  0  0  0  0
 21 22  1  0  0  0  0
 21 27  1  0  0  0  0
 22 23  2  0  0  0  0
 22 25  1  0  0  0  0
 23 24  1  0  0  0  0
 25 26  2  0  0  0  0
 26 27  1  0  0  0  0
M  END
>  <CHROM.1>
-2.07079615,-152.54668501,-67.38476670,-60.57377388,-76.31189317,-61.91954708
-85.39424112,46.41554057,56.34145631,32.40353805,0.55069965,0.41535633,2.49151094

>  <Name>
ligand

>  <RI>
0

>  <Rbt.Current_Directory>
/home/itssahil/PROJECTS/Mol_Feturizer/New_Systems/rnas/3GX2

>  <Rbt.Executable>
rbdock ($Id: //depot/dev/client3/rdock/2013.1/src/exe/rbdock.cxx#4 $)

>  <Rbt.Library>
libRbt.so (2013.1, Build901 2013/11/27)

>  <Rbt.Parameter_File>
/export/apps/rDock/src/rDock_2013.1_src/data/scripts/dock_solv.prm

>  <Rbt.Receptor>
prm/pocket_docking_7.prm

>  <SCORE>
-12.0592

>  <SCORE.INTER>
-9.30794

>  <SCORE.INTER.CONST>
1

>  <SCORE.INTER.POLAR>
0

>  <SCORE.INTER.ROT>
7

>  <SCORE.INTER.SOLV>
21.3611

>  <SCORE.INTER.VDW>
-21.5923

>  <SCORE.INTER.norm>
-0.344738

>  <SCORE.INTRA>
-2.75124

>  <SCORE.INTRA.DIHEDRAL>
-6.033

>  <SCORE.INTRA.DIHEDRAL.0>
13.9704

>  <SCORE.INTRA.POLAR>
0

>  <SCORE.INTRA.POLAR.0>
0

>  <SCORE.INTRA.REPUL>
0

>  <SCORE.INTRA.REPUL.0>
0

>  <SCORE.INTRA.SOLV>
2.47931

>  <SCORE.INTRA.SOLV.lig_0>
-70.9758

>  <SCORE.INTRA.VDW>
-0.974396

>  <SCORE.INTRA.VDW.0>
-2.70686

>  <SCORE.INTRA.norm>
-0.101898

>  <SCORE.RESTR>
0

>  <SCORE.RESTR.CAVITY>
0

>  <SCORE.RESTR.norm>
0

>  <SCORE.SYSTEM>
0

>  <SCORE.SYSTEM.CONST>
0

>  <SCORE.SYSTEM.DIHEDRAL>
0

>  <SCORE.SYSTEM.SOLV>
0

>  <SCORE.SYSTEM.norm>
0

>  <SCORE.heavy>
27

>  <SCORE.norm>
-0.446636

>  <RMSD>
5.445

$$$$
ligand
 OpenBabel11021811483D
libRbt.so/2013.1/901 2013/11/27
 27 29  0  0  0  0  0  0  0  0999 V2000
   47.0477   54.8815   25.8196 N   0  0  0  0  0  0  0  0  0  0  0  0
   48.2164   55.7154   25.5478 C   0  0  2  0  0  0  0  0  0  0  0  0
   49.1222   55.1748   24.4394 C   0  0  0  0  0  0  0  0  0  0  0  0
   49.5423   55.9306   23.6275 O   0  0  0  0  0  0  0  0  0  0  0  0
   48.9987   56.1551   26.8031 C   0  0  0  0  0  0  0  0  0  0  0  0
   48.3275   57.1162   27.8234 C   0  0  0  0  0  0  0  0  0  0  0  0
   49.0933   57.3245   29.1571 C   0  0  2  0  0  0  0  0  0  0  0  0
   48.9845   56.1795   30.0610 N   0  0  0  0  0  0  0  0  0  0  0  0
   48.7308   58.6798   29.8389 C   0  0  0  0  0  0  0  0  0  0  0  0
   47.3098   58.8392   30.4775 C   0  0  1  0  0  0  0  0  0  0  0  0
   46.1393   58.4085   29.7213 O   0  0  0  0  0  0  0  0  0  0  0  0
   47.1042   58.2304   31.8928 C   0  0  1  0  0  0  0  0  0  0  0  0
   47.8250   58.8167   32.9845 O   0  0  0  0  0  0  0  0  0  0  0  0
   45.5649   58.0136   32.0247 C   0  0  1  0  0  0  0  0  0  0  0  0
   44.8544   58.8406   32.9147 O   0  0  0  0  0  0  0  0  0  0  0  0
   45.1087   57.9344   30.5644 C   0  0  2  0  0  0  0  0  0  0  0  0
   49.8102   53.9659   24.6652 O   0  0  0  0  0  0  0  0  0  0  0  0
   40.9613   54.6309   29.3922 N   0  0  0  0  0  0  0  0  0  0  0  0
   40.8996   55.9871   29.7324 C   0  0  0  0  0  0  0  0  0  0  0  0
   42.1272   56.7260   30.0192 N   0  0  0  0  0  0  0  0  0  0  0  0
   43.3404   56.0942   29.9541 C   0  0  0  0  0  0  0  0  0  0  0  0
   43.3934   54.7286   29.6127 C   0  0  0  0  0  0  0  0  0  0  0  0
   42.1695   53.9927   29.3278 C   0  0  0  0  0  0  0  0  0  0  0  0
   42.2227   52.5743   28.9721 N   0  0  0  0  0  0  0  0  0  0  0  0
   44.7773   54.3216   29.6197 N   0  0  0  0  0  0  0  0  0  0  0  0
   45.5565   55.4493   29.9699 C   0  0  0  0  0  0  0  0  0  0  0  0
   44.6852   56.5571   30.1789 N   0  0  0  0  0  0  0  0  0  0  0  0
  2  1  1  1  0  0  0
  2  3  1  0  0  0  0
  2  5  1  0  0  0  0
  3  4  1  0  0  0  0
  3 17  1  0  0  0  0
  5  6  1  0  0  0  0
  7  6  1  6  0  0  0
  7  8  1  0  0  0  0
  7  9  1  0  0  0  0
 10  9  1  6  0  0  0
 10 11  1  0  0  0  0
 10 12  1  0  0  0  0
 11 16  1  0  0  0  0
 12 13  1  1  0  0  0
 12 14  1  0  0  0  0
 14 15  1  6  0  0  0
 14 16  1  0  0  0  0
 16 27  1  6  0  0  0
 18 19  2  0  0  0  0
 18 23  1  0  0  0  0
 19 20  1  0  0  0  0
 20 21  2  0  0  0  0
 21 22  1  0  0  0  0
 21 27  1  0  0  0  0
 22 23  2  0  0  0  0
 22 25  1  0  0  0  0
 23 24  1  0  0  0  0
 25 26  2  0  0  0  0
 26 27  1  0  0  0  0
M  END
>  <CHROM.1>
136.26670669,-66.20330219,170.65541550,-74.97329895,71.06535220,-46.41974565
-129.91356556,46.09437482,56.37742297,29.05255868,0.62591297,-0.38517932
-2.17911820

>  <Name>
ligand

>  <RI>
0

>  <Rbt.Current_Directory>
/home/itssahil/PROJECTS/Mol_Feturizer/New_Systems/rnas/3GX2

>  <Rbt.Executable>
rbdock ($Id: //depot/dev/client3/rdock/2013.1/src/exe/rbdock.cxx#4 $)

>  <Rbt.Library>
libRbt.so (2013.1, Build901 2013/11/27)

>  <Rbt.Parameter_File>
/export/apps/rDock/src/rDock_2013.1_src/data/scripts/dock_solv.prm

>  <Rbt.Receptor>
prm/pocket_docking_7.prm

>  <SCORE>
-7.54881

>  <SCORE.INTER>
-4.81695

>  <SCORE.INTER.CONST>
1

>  <SCORE.INTER.POLAR>
0

>  <SCORE.INTER.ROT>
7

>  <SCORE.INTER.SOLV>
14.2647

>  <SCORE.INTER.VDW>
-16.2329

>  <SCORE.INTER.norm>
-0.178405

>  <SCORE.INTRA>
-2.73186

>  <SCORE.INTRA.DIHEDRAL>
-6.48802

>  <SCORE.INTRA.DIHEDRAL.0>
13.9704

>  <SCORE.INTRA.POLAR>
0

>  <SCORE.INTRA.POLAR.0>
0

>  <SCORE.INTRA.REPUL>
0

>  <SCORE.INTRA.REPUL.0>
0

>  <SCORE.INTRA.SOLV>
2.43507

>  <SCORE.INTRA.SOLV.lig_0>
-70.9758

>  <SCORE.INTRA.VDW>
-0.705386

>  <SCORE.INTRA.VDW.0>
-2.70686

>  <SCORE.INTRA.norm>
-0.10118

>  <SCORE.RESTR>
0

>  <SCORE.RESTR.CAVITY>
0

>  <SCORE.RESTR.norm>
0

>  <SCORE.SYSTEM>
0

>  <SCORE.SYSTEM.CONST>
0

>  <SCORE.SYSTEM.DIHEDRAL>
0

>  <SCORE.SYSTEM.SOLV>
0

>  <SCORE.SYSTEM.norm>
0

>  <SCORE.heavy>
27

>  <SCORE.norm>
-0.279585

>  <RMSD>
5.471

$$$$
ligand
 OpenBabel11021811473D
libRbt.so/2013.1/901 2013/11/27
 27 29  0  0  0  0  0  0  0  0999 V2000
   45.7259   55.8025   27.7088 N   0  0  0  0  0  0  0  0  0  0  0  0
   46.1895   57.1818   27.8414 C   0  0  2  0  0  0  0  0  0  0  0  0
   47.7053   57.3440   27.7104 C   0  0  0  0  0  0  0  0  0  0  0  0
   48.1398   58.4005   27.3910 O   0  0  0  0  0  0  0  0  0  0  0  0
   45.6050   57.9433   29.0496 C   0  0  0  0  0  0  0  0  0  0  0  0
   45.7194   57.3242   30.4704 C   0  0  0  0  0  0  0  0  0  0  0  0
   45.4692   58.2987   31.6521 C   0  0  2  0  0  0  0  0  0  0  0  0
   46.4725   59.3599   31.7371 N   0  0  0  0  0  0  0  0  0  0  0  0
   45.2581   57.5458   33.0018 C   0  0  0  0  0  0  0  0  0  0  0  0
   46.2766   56.4249   33.4001 C   0  0  1  0  0  0  0  0  0  0  0  0
   46.0940   55.0787   32.8693 O   0  0  0  0  0  0  0  0  0  0  0  0
   47.7830   56.7321   33.1719 C   0  0  1  0  0  0  0  0  0  0  0  0
   48.3824   57.7663   33.9633 O   0  0  0  0  0  0  0  0  0  0  0  0
   48.4766   55.3371   33.0890 C   0  0  1  0  0  0  0  0  0  0  0  0
   49.3152   54.9513   34.1514 O   0  0  0  0  0  0  0  0  0  0  0  0
   47.3259   54.4116   32.6812 C   0  0  2  0  0  0  0  0  0  0  0  0
   48.5386   56.4476   28.4088 O   0  0  0  0  0  0  0  0  0  0  0  0
   50.7313   53.0685   28.6704 N   0  0  0  0  0  0  0  0  0  0  0  0
   51.0624   53.5264   29.9508 C   0  0  0  0  0  0  0  0  0  0  0  0
   50.0067   53.8433   30.9101 N   0  0  0  0  0  0  0  0  0  0  0  0
   48.6917   53.6915   30.5595 C   0  0  0  0  0  0  0  0  0  0  0  0
   48.3672   53.2319   29.2682 C   0  0  0  0  0  0  0  0  0  0  0  0
   49.4197   52.9170   28.3125 C   0  0  0  0  0  0  0  0  0  0  0  0
   49.0845   52.4385   26.9708 N   0  0  0  0  0  0  0  0  0  0  0  0
   46.9296   53.1668   29.1673 N   0  0  0  0  0  0  0  0  0  0  0  0
   46.3910   53.5924   30.4043 C   0  0  0  0  0  0  0  0  0  0  0  0
   47.4661   53.9197   31.2801 N   0  0  0  0  0  0  0  0  0  0  0  0
  2  1  1  1  0  0  0
  2  3  1  0  0  0  0
  2  5  1  0  0  0  0
  3  4  1  0  0  0  0
  3 17  1  0  0  0  0
  5  6  1  0  0  0  0
  7  6  1  6  0  0  0
  7  8  1  0  0  0  0
  7  9  1  0  0  0  0
 10  9  1  6  0  0  0
 10 11  1  0  0  0  0
 10 12  1  0  0  0  0
 11 16  1  0  0  0  0
 12 13  1  1  0  0  0
 12 14  1  0  0  0  0
 14 15  1  1  0  0  0
 14 16  1  0  0  0  0
 16 27  1  6  0  0  0
 18 19  2  0  0  0  0
 18 23  1  0  0  0  0
 19 20  1  0  0  0  0
 20 21  2  0  0  0  0
 21 22  1  0  0  0  0
 21 27  1  0  0  0  0
 22 23  2  0  0  0  0
 22 25  1  0  0  0  0
 23 24  1  0  0  0  0
 25 26  2  0  0  0  0
 26 27  1  0  0  0  0
M  END
>  <CHROM.1>
156.93689378,53.17323405,163.87998406,-64.72021675,48.32514965,-83.64725769
153.33476826,47.64545066,55.61238760,30.53949265,0.73614282,0.97629595,-1.58447393

>  <Name>
ligand

>  <RI>
0

>  <Rbt.Current_Directory>
/home/itssahil/PROJECTS/Mol_Feturizer/New_Systems/rnas/3GX2

>  <Rbt.Executable>
rbdock ($Id: //depot/dev/client3/rdock/2013.1/src/exe/rbdock.cxx#4 $)

>  <Rbt.Library>
libRbt.so (2013.1, Build901 2013/11/27)

>  <Rbt.Parameter_File>
/export/apps/rDock/src/rDock_2013.1_src/data/scripts/dock_solv.prm

>  <Rbt.Receptor>
prm/pocket_docking_4.prm

>  <SCORE>
-8.40911

>  <SCORE.INTER>
-5.75898

>  <SCORE.INTER.CONST>
1

>  <SCORE.INTER.POLAR>
0

>  <SCORE.INTER.ROT>
7

>  <SCORE.INTER.SOLV>
12.1012

>  <SCORE.INTER.VDW>
-16.1397

>  <SCORE.INTER.norm>
-0.213295

>  <SCORE.INTRA>
-2.65013

>  <SCORE.INTRA.DIHEDRAL>
-5.52956

>  <SCORE.INTRA.DIHEDRAL.0>
13.9704

>  <SCORE.INTRA.POLAR>
0

>  <SCORE.INTRA.POLAR.0>
0

>  <SCORE.INTRA.REPUL>
0

>  <SCORE.INTRA.REPUL.0>
0

>  <SCORE.INTRA.SOLV>
3.40451

>  <SCORE.INTRA.SOLV.lig_0>
-70.9758

>  <SCORE.INTRA.VDW>
-1.5876

>  <SCORE.INTRA.VDW.0>
-2.70686

>  <SCORE.INTRA.norm>
-0.098153

>  <SCORE.RESTR>
0

>  <SCORE.RESTR.CAVITY>
0

>  <SCORE.RESTR.norm>
0

>  <SCORE.SYSTEM>
0

>  <SCORE.SYSTEM.CONST>
0

>  <SCORE.SYSTEM.DIHEDRAL>
0

>  <SCORE.SYSTEM.SOLV>
0

>  <SCORE.SYSTEM.norm>
0

>  <SCORE.heavy>
27

>  <SCORE.norm>
-0.311448

>  <RMSD>
5.474

$$$$
ligand
 OpenBabel11021811473D
libRbt.so/2013.1/901 2013/11/27
 27 29  0  0  0  0  0  0  0  0999 V2000
   48.6471   58.3789   30.1155 N   0  0  0  0  0  0  0  0  0  0  0  0
   48.3162   59.5244   30.9601 C   0  0  2  0  0  0  0  0  0  0  0  0
   49.1550   59.6194   32.2363 C   0  0  0  0  0  0  0  0  0  0  0  0
   48.9059   60.4746   33.0195 O   0  0  0  0  0  0  0  0  0  0  0  0
   46.8071   59.7202   31.2160 C   0  0  0  0  0  0  0  0  0  0  0  0
   46.0878   58.8253   32.2633 C   0  0  0  0  0  0  0  0  0  0  0  0
   46.3299   57.2987   32.1249 C   0  0  2  0  0  0  0  0  0  0  0  0
   45.7326   56.7349   30.9144 N   0  0  0  0  0  0  0  0  0  0  0  0
   45.9403   56.5208   33.4196 C   0  0  0  0  0  0  0  0  0  0  0  0
   46.4340   55.0435   33.5817 C   0  0  1  0  0  0  0  0  0  0  0  0
   46.2462   54.1073   32.4793 O   0  0  0  0  0  0  0  0  0  0  0  0
   47.9126   54.8415   34.0161 C   0  0  1  0  0  0  0  0  0  0  0  0
   48.2880   55.2694   35.3318 O   0  0  0  0  0  0  0  0  0  0  0  0
   48.2823   53.3994   33.5492 C   0  0  1  0  0  0  0  0  0  0  0  0
   48.4680   52.4123   34.5350 O   0  0  0  0  0  0  0  0  0  0  0  0
   47.2759   53.1406   32.4236 C   0  0  2  0  0  0  0  0  0  0  0  0
   49.8357   58.4676   32.6788 O   0  0  0  0  0  0  0  0  0  0  0  0
   50.7514   55.5659   29.0287 N   0  0  0  0  0  0  0  0  0  0  0  0
   50.4078   55.9666   30.3249 C   0  0  0  0  0  0  0  0  0  0  0  0
   49.4458   55.1871   31.1007 N   0  0  0  0  0  0  0  0  0  0  0  0
   48.8797   54.0623   30.5625 C   0  0  0  0  0  0  0  0  0  0  0  0
   49.2297   53.6671   29.2565 C   0  0  0  0  0  0  0  0  0  0  0  0
   50.1879   54.4449   28.4837 C   0  0  0  0  0  0  0  0  0  0  0  0
   50.5535   54.0353   27.1272 N   0  0  0  0  0  0  0  0  0  0  0  0
   48.4945   52.4662   28.9430 N   0  0  0  0  0  0  0  0  0  0  0  0
   47.6982   52.1426   30.0666 C   0  0  0  0  0  0  0  0  0  0  0  0
   47.9242   53.1178   31.0805 N   0  0  0  0  0  0  0  0  0  0  0  0
  2  1  1  1  0  0  0
  2  3  1  0  0  0  0
  2  5  1  0  0  0  0
  3  4  1  0  0  0  0
  3 17  1  0  0  0  0
  5  6  1  0  0  0  0
  7  6  1  1  0  0  0
  7  8  1  0  0  0  0
  7  9  1  0  0  0  0
 10  9  1  6  0  0  0
 10 11  1  0  0  0  0
 10 12  1  0  0  0  0
 11 16  1  0  0  0  0
 12 13  1  1  0  0  0
 12 14  1  0  0  0  0
 14 15  1  1  0  0  0
 14 16  1  0  0  0  0
 16 27  1  6  0  0  0
 18 19  2  0  0  0  0
 18 23  1  0  0  0  0
 19 20  1  0  0  0  0
 20 21  2  0  0  0  0
 21 22  1  0  0  0  0
 21 27  1  0  0  0  0
 22 23  2  0  0  0  0
 22 25  1  0  0  0  0
 23 24  1  0  0  0  0
 25 26  2  0  0  0  0
 26 27  1  0  0  0  0
M  END
>  <CHROM.1>
-175.83150275,78.20074921,-49.89146787,-67.63845553,-165.49534902,-48.59570023
76.83585840,48.21605644,55.76883435,31.59453002,-1.89548890,-1.07740247,-3.11850207

>  <Name>
ligand

>  <RI>
0

>  <Rbt.Current_Directory>
/home/itssahil/PROJECTS/Mol_Feturizer/New_Systems/rnas/3GX2

>  <Rbt.Executable>
rbdock ($Id: //depot/dev/client3/rdock/2013.1/src/exe/rbdock.cxx#4 $)

>  <Rbt.Library>
libRbt.so (2013.1, Build901 2013/11/27)

>  <Rbt.Parameter_File>
/export/apps/rDock/src/rDock_2013.1_src/data/scripts/dock_solv.prm

>  <Rbt.Receptor>
prm/pocket_docking_3.prm

>  <SCORE>
-12.3049

>  <SCORE.INTER>
-10.4858

>  <SCORE.INTER.CONST>
1

>  <SCORE.INTER.POLAR>
0

>  <SCORE.INTER.ROT>
7

>  <SCORE.INTER.SOLV>
10.9292

>  <SCORE.INTER.VDW>
-18.9003

>  <SCORE.INTER.norm>
-0.388363

>  <SCORE.INTRA>
-1.81907

>  <SCORE.INTRA.DIHEDRAL>
-6.59211

>  <SCORE.INTRA.DIHEDRAL.0>
13.9704

>  <SCORE.INTRA.POLAR>
0

>  <SCORE.INTRA.POLAR.0>
0

>  <SCORE.INTRA.REPUL>
0

>  <SCORE.INTRA.REPUL.0>
0

>  <SCORE.INTRA.SOLV>
5.82774

>  <SCORE.INTRA.SOLV.lig_0>
-70.9758

>  <SCORE.INTRA.VDW>
-1.43688

>  <SCORE.INTRA.VDW.0>
-2.70686

>  <SCORE.INTRA.norm>
-0.0673729

>  <SCORE.RESTR>
0

>  <SCORE.RESTR.CAVITY>
0

>  <SCORE.RESTR.norm>
0

>  <SCORE.SYSTEM>
0

>  <SCORE.SYSTEM.CONST>
0

>  <SCORE.SYSTEM.DIHEDRAL>
0

>  <SCORE.SYSTEM.SOLV>
0

>  <SCORE.SYSTEM.norm>
0

>  <SCORE.heavy>
27

>  <SCORE.norm>
-0.455736

>  <RMSD>
5.476

$$$$
ligand
 OpenBabel11021811473D
libRbt.so/2013.1/901 2013/11/27
 27 29  0  0  0  0  0  0  0  0999 V2000
   46.2603   58.5023   29.2588 N   0  0  0  0  0  0  0  0  0  0  0  0
   46.8688   58.0962   30.5236 C   0  0  2  0  0  0  0  0  0  0  0  0
   46.2921   58.8090   31.7486 C   0  0  0  0  0  0  0  0  0  0  0  0
   46.0653   59.9710   31.6774 O   0  0  0  0  0  0  0  0  0  0  0  0
   48.4116   58.0677   30.5151 C   0  0  0  0  0  0  0  0  0  0  0  0
   49.1700   57.4199   31.7068 C   0  0  0  0  0  0  0  0  0  0  0  0
   49.0476   58.1599   33.0654 C   0  0  2  0  0  0  0  0  0  0  0  0
   49.7594   59.4378   33.0839 N   0  0  0  0  0  0  0  0  0  0  0  0
   49.4095   57.2398   34.2719 C   0  0  0  0  0  0  0  0  0  0  0  0
   48.5803   55.9290   34.4879 C   0  0  1  0  0  0  0  0  0  0  0  0
   47.4735   55.6324   33.5856 O   0  0  0  0  0  0  0  0  0  0  0  0
   49.3799   54.5989   34.5731 C   0  0  1  0  0  0  0  0  0  0  0  0
   50.2499   54.4119   35.6971 O   0  0  0  0  0  0  0  0  0  0  0  0
   48.3539   53.4813   34.2092 C   0  0  1  0  0  0  0  0  0  0  0  0
   47.9301   52.6137   35.2332 O   0  0  0  0  0  0  0  0  0  0  0  0
   47.2986   54.2421   33.4003 C   0  0  2  0  0  0  0  0  0  0  0  0
   45.6113   58.0399   32.7134 O   0  0  0  0  0  0  0  0  0  0  0  0
   50.3793   53.0874   29.0802 N   0  0  0  0  0  0  0  0  0  0  0  0
   50.8106   53.3968   30.3752 C   0  0  0  0  0  0  0  0  0  0  0  0
   49.8332   53.6837   31.4229 N   0  0  0  0  0  0  0  0  0  0  0  0
   48.4937   53.6487   31.1408 C   0  0  0  0  0  0  0  0  0  0  0  0
   48.0682   53.3383   29.8344 C   0  0  0  0  0  0  0  0  0  0  0  0
   49.0428   53.0533   28.7907 C   0  0  0  0  0  0  0  0  0  0  0  0
   48.6026   52.7296   27.4332 N   0  0  0  0  0  0  0  0  0  0  0  0
   46.6262   53.3728   29.8161 N   0  0  0  0  0  0  0  0  0  0  0  0
   46.1865   53.7085   31.1182 C   0  0  0  0  0  0  0  0  0  0  0  0
   47.3278   53.8814   31.9533 N   0  0  0  0  0  0  0  0  0  0  0  0
  2  1  1  6  0  0  0
  2  3  1  0  0  0  0
  2  5  1  0  0  0  0
  3  4  1  0  0  0  0
  3 17  1  0  0  0  0
  5  6  1  0  0  0  0
  7  6  1  6  0  0  0
  7  8  1  0  0  0  0
  7  9  1  0  0  0  0
 10  9  1  6  0  0  0
 10 11  1  0  0  0  0
 10 12  1  0  0  0  0
 11 16  1  0  0  0  0
 12 13  1  1  0  0  0
 12 14  1  0  0  0  0
 14 15  1  1  0  0  0
 14 16  1  0  0  0  0
 16 27  1  6  0  0  0
 18 19  2  0  0  0  0
 18 23  1  0  0  0  0
 19 20  1  0  0  0  0
 20 21  2  0  0  0  0
 21 22  1  0  0  0  0
 21 27  1  0  0  0  0
 22 23  2  0  0  0  0
 22 25  1  0  0  0  0
 23 24  1  0  0  0  0
 25 26  2  0  0  0  0
 26 27  1  0  0  0  0
M  END
>  <CHROM.1>
-41.60184943,-169.37743105,-67.05512559,-69.84388325,-59.17136668,-1.97237211
83.38384984,48.18103095,55.56219050,31.94964885,2.35529630,-1.21833615,1.01882102

>  <Name>
ligand

>  <RI>
0

>  <Rbt.Current_Directory>
/home/itssahil/PROJECTS/Mol_Feturizer/New_Systems/rnas/3GX2

>  <Rbt.Executable>
rbdock ($Id: //depot/dev/client3/rdock/2013.1/src/exe/rbdock.cxx#4 $)

>  <Rbt.Library>
libRbt.so (2013.1, Build901 2013/11/27)

>  <Rbt.Parameter_File>
/export/apps/rDock/src/rDock_2013.1_src/data/scripts/dock_solv.prm

>  <Rbt.Receptor>
prm/pocket_docking_3.prm

>  <SCORE>
-11.3806

>  <SCORE.INTER>
-8.86727

>  <SCORE.INTER.CONST>
1

>  <SCORE.INTER.POLAR>
0

>  <SCORE.INTER.ROT>
7

>  <SCORE.INTER.SOLV>
16.8361

>  <SCORE.INTER.VDW>
-19.7902

>  <SCORE.INTER.norm>
-0.328417

>  <SCORE.INTRA>
-2.5133

>  <SCORE.INTRA.DIHEDRAL>
-3.10987

>  <SCORE.INTRA.DIHEDRAL.0>
13.9704

>  <SCORE.INTRA.POLAR>
0

>  <SCORE.INTRA.POLAR.0>
0

>  <SCORE.INTRA.REPUL>
0

>  <SCORE.INTRA.REPUL.0>
0

>  <SCORE.INTRA.SOLV>
1.74362

>  <SCORE.INTRA.SOLV.lig_0>
-70.9758

>  <SCORE.INTRA.VDW>
-1.83017

>  <SCORE.INTRA.VDW.0>
-2.70686

>  <SCORE.INTRA.norm>
-0.0930851

>  <SCORE.RESTR>
0

>  <SCORE.RESTR.CAVITY>
0

>  <SCORE.RESTR.norm>
0

>  <SCORE.SYSTEM>
0

>  <SCORE.SYSTEM.CONST>
0

>  <SCORE.SYSTEM.DIHEDRAL>
0

>  <SCORE.SYSTEM.SOLV>
0

>  <SCORE.SYSTEM.norm>
0

>  <SCORE.heavy>
27

>  <SCORE.norm>
-0.421502

>  <RMSD>
5.488

$$$$
ligand
 OpenBabel11021811473D
libRbt.so/2013.1/901 2013/11/27
 27 29  0  0  0  0  0  0  0  0999 V2000
   47.8969   57.9585   30.9877 N   0  0  0  0  0  0  0  0  0  0  0  0
   47.2643   59.2463   31.2640 C   0  0  2  0  0  0  0  0  0  0  0  0
   48.2522   60.3650   31.6016 C   0  0  0  0  0  0  0  0  0  0  0  0
   47.9147   61.4907   31.4412 O   0  0  0  0  0  0  0  0  0  0  0  0
   46.0725   59.1808   32.2419 C   0  0  0  0  0  0  0  0  0  0  0  0
   44.8622   58.2640   31.9104 C   0  0  0  0  0  0  0  0  0  0  0  0
   45.1542   56.7398   31.9011 C   0  0  2  0  0  0  0  0  0  0  0  0
   44.0416   55.9502   31.3732 N   0  0  0  0  0  0  0  0  0  0  0  0
   45.6656   56.2297   33.2836 C   0  0  0  0  0  0  0  0  0  0  0  0
   46.5184   54.9170   33.3276 C   0  0  1  0  0  0  0  0  0  0  0  0
   46.1765   53.8180   32.4317 O   0  0  0  0  0  0  0  0  0  0  0  0
   48.0576   55.0749   33.1800 C   0  0  1  0  0  0  0  0  0  0  0  0
   48.7651   55.7476   34.2298 O   0  0  0  0  0  0  0  0  0  0  0  0
   48.5656   53.6843   32.6879 C   0  0  1  0  0  0  0  0  0  0  0  0
   49.3181   52.9006   33.5827 O   0  0  0  0  0  0  0  0  0  0  0  0
   47.3157   53.0768   32.0435 C   0  0  2  0  0  0  0  0  0  0  0  0
   49.2934   60.0888   32.5100 O   0  0  0  0  0  0  0  0  0  0  0  0
   46.4448   55.5590   27.2930 N   0  0  0  0  0  0  0  0  0  0  0  0
   46.1609   56.0475   28.5734 C   0  0  0  0  0  0  0  0  0  0  0  0
   46.4642   55.2358   29.7499 N   0  0  0  0  0  0  0  0  0  0  0  0
   47.0282   53.9967   29.6028 C   0  0  0  0  0  0  0  0  0  0  0  0
   47.3090   53.5119   28.3104 C   0  0  0  0  0  0  0  0  0  0  0  0
   47.0058   54.3210   27.1384 C   0  0  0  0  0  0  0  0  0  0  0  0
   47.2976   53.8195   25.7950 N   0  0  0  0  0  0  0  0  0  0  0  0
   47.8905   52.1986   28.4445 N   0  0  0  0  0  0  0  0  0  0  0  0
   47.9556   51.8948   29.8247 C   0  0  0  0  0  0  0  0  0  0  0  0
   47.4283   52.9965   30.5583 N   0  0  0  0  0  0  0  0  0  0  0  0
  2  1  1  1  0  0  0
  2  3  1  0  0  0  0
  2  5  1  0  0  0  0
  3  4  1  0  0  0  0
  3 17  1  0  0  0  0
  5  6  1  0  0  0  0
  7  6  1  1  0  0  0
  7  8  1  0  0  0  0
  7  9  1  0  0  0  0
 10  9  1  6  0  0  0
 10 11  1  0  0  0  0
 10 12  1  0  0  0  0
 11 16  1  0  0  0  0
 12 13  1  1  0  0  0
 12 14  1  0  0  0  0
 14 15  1  1  0  0  0
 14 16  1  0  0  0  0
 16 27  1  6  0  0  0
 18 19  2  0  0  0  0
 18 23  1  0  0  0  0
 19 20  1  0  0  0  0
 20 21  2  0  0  0  0
 21 22  1  0  0  0  0
 21 27  1  0  0  0  0
 22 23  2  0  0  0  0
 22 25  1  0  0  0  0
 23 24  1  0  0  0  0
 25 26  2  0  0  0  0
 26 27  1  0  0  0  0
M  END
>  <CHROM.1>
157.22114446,-57.28220456,65.87095923,-170.61965956,-156.35312184,-37.69447173
32.94324925,47.14402748,55.78413693,31.02315140,1.54726984,-1.38209819,0.42248159

>  <Name>
ligand

>  <RI>
0

>  <Rbt.Current_Directory>
/home/itssahil/PROJECTS/Mol_Feturizer/New_Systems/rnas/3GX2

>  <Rbt.Executable>
rbdock ($Id: //depot/dev/client3/rdock/2013.1/src/exe/rbdock.cxx#4 $)

>  <Rbt.Library>
libRbt.so (2013.1, Build901 2013/11/27)

>  <Rbt.Parameter_File>
/export/apps/rDock/src/rDock_2013.1_src/data/scripts/dock_solv.prm

>  <Rbt.Receptor>
prm/pocket_docking_3.prm

>  <SCORE>
-8.86485

>  <SCORE.INTER>
-7.33592

>  <SCORE.INTER.CONST>
1

>  <SCORE.INTER.POLAR>
0

>  <SCORE.INTER.ROT>
7

>  <SCORE.INTER.SOLV>
10.7133

>  <SCORE.INTER.VDW>
-16.7284

>  <SCORE.INTER.norm>
-0.271701

>  <SCORE.INTRA>
-1.54607

>  <SCORE.INTRA.DIHEDRAL>
-5.05563

>  <SCORE.INTRA.DIHEDRAL.0>
13.9704

>  <SCORE.INTRA.POLAR>
0

>  <SCORE.INTRA.POLAR.0>
0

>  <SCORE.INTRA.REPUL>
0

>  <SCORE.INTRA.REPUL.0>
0

>  <SCORE.INTRA.SOLV>
4.96018

>  <SCORE.INTRA.SOLV.lig_0>
-70.9758

>  <SCORE.INTRA.VDW>
-1.49834

>  <SCORE.INTRA.VDW.0>
-2.70686

>  <SCORE.INTRA.norm>
-0.0572619

>  <SCORE.RESTR>
0.0171395

>  <SCORE.RESTR.CAVITY>
0.0171395

>  <SCORE.RESTR.norm>
0.000634796

>  <SCORE.SYSTEM>
0

>  <SCORE.SYSTEM.CONST>
0

>  <SCORE.SYSTEM.DIHEDRAL>
0

>  <SCORE.SYSTEM.SOLV>
0

>  <SCORE.SYSTEM.norm>
0

>  <SCORE.heavy>
27

>  <SCORE.norm>
-0.328328

>  <RMSD>
5.489

$$$$
ligand
 OpenBabel11021811473D
libRbt.so/2013.1/901 2013/11/27
 27 29  0  0  0  0  0  0  0  0999 V2000
   47.3901   53.1840   27.1293 N   0  0  0  0  0  0  0  0  0  0  0  0
   48.8496   53.1946   27.0601 C   0  0  2  0  0  0  0  0  0  0  0  0
   49.4357   52.1375   26.1217 C   0  0  0  0  0  0  0  0  0  0  0  0
   48.7824   51.1827   25.8602 O   0  0  0  0  0  0  0  0  0  0  0  0
   49.5581   53.2420   28.4301 C   0  0  0  0  0  0  0  0  0  0  0  0
   49.3828   54.4914   29.3376 C   0  0  0  0  0  0  0  0  0  0  0  0
   50.0202   54.3934   30.7492 C   0  0  2  0  0  0  0  0  0  0  0  0
   49.5986   53.2001   31.4828 N   0  0  0  0  0  0  0  0  0  0  0  0
   49.8438   55.7096   31.5676 C   0  0  0  0  0  0  0  0  0  0  0  0
   48.3970   56.2699   31.7803 C   0  0  1  0  0  0  0  0  0  0  0  0
   47.3440   55.3651   32.2271 O   0  0  0  0  0  0  0  0  0  0  0  0
   48.2550   57.5158   32.6986 C   0  0  1  0  0  0  0  0  0  0  0  0
   48.8276   58.7496   32.2458 O   0  0  0  0  0  0  0  0  0  0  0  0
   46.7732   57.4970   33.1865 C   0  0  1  0  0  0  0  0  0  0  0  0
   45.9018   58.4858   32.6928 O   0  0  0  0  0  0  0  0  0  0  0  0
   46.3848   56.0235   33.0298 C   0  0  2  0  0  0  0  0  0  0  0  0
   50.4655   52.5207   25.2395 O   0  0  0  0  0  0  0  0  0  0  0  0
   48.8471   54.0167   37.4339 N   0  0  0  0  0  0  0  0  0  0  0  0
   49.4467   54.6346   36.3306 C   0  0  0  0  0  0  0  0  0  0  0  0
   48.6223   55.1180   35.2253 N   0  0  0  0  0  0  0  0  0  0  0  0
   47.2616   54.9693   35.2671 C   0  0  0  0  0  0  0  0  0  0  0  0
   46.6664   54.3446   36.3804 C   0  0  0  0  0  0  0  0  0  0  0  0
   47.4888   53.8624   37.4812 C   0  0  0  0  0  0  0  0  0  0  0  0
   46.8721   53.2140   38.6391 N   0  0  0  0  0  0  0  0  0  0  0  0
   45.2401   54.3185   36.1662 N   0  0  0  0  0  0  0  0  0  0  0  0
   44.9807   54.9286   34.9164 C   0  0  0  0  0  0  0  0  0  0  0  0
   46.2194   55.3400   34.3452 N   0  0  0  0  0  0  0  0  0  0  0  0
  2  1  1  1  0  0  0
  2  3  1  0  0  0  0
  2  5  1  0  0  0  0
  3  4  1  0  0  0  0
  3 17  1  0  0  0  0
  5  6  1  0  0  0  0
  7  6  1  6  0  0  0
  7  8  1  0  0  0  0
  7  9  1  0  0  0  0
 10  9  1  1  0  0  0
 10 11  1  0  0  0  0
 10 12  1  0  0  0  0
 11 16  1  0  0  0  0
 12 13  1  6  0  0  0
 12 14  1  0  0  0  0
 14 15  1  6  0  0  0
 14 16  1  0  0  0  0
 16 27  1  1  0  0  0
 18 19  2  0  0  0  0
 18 23  1  0  0  0  0
 19 20  1  0  0  0  0
 20 21  2  0  0  0  0
 21 22  1  0  0  0  0
 21 27  1  0  0  0  0
 22 23  2  0  0  0  0
 22 25  1  0  0  0  0
 23 24  1  0  0  0  0
 25 26  2  0  0  0  0
 26 27  1  0  0  0  0
M  END
>  <CHROM.1>
-22.39656144,-64.62515109,174.41854835,-52.99566411,55.67190738,48.00283070
51.22118328,48.05632667,54.74618947,32.19250209,-0.61562938,-1.28803502,2.27521681

>  <Name>
ligand

>  <RI>
0

>  <Rbt.Current_Directory>
/home/itssahil/PROJECTS/Mol_Feturizer/New_Systems/rnas/3GX2

>  <Rbt.Executable>
rbdock ($Id: //depot/dev/client3/rdock/2013.1/src/exe/rbdock.cxx#4 $)

>  <Rbt.Library>
libRbt.so (2013.1, Build901 2013/11/27)

>  <Rbt.Parameter_File>
/export/apps/rDock/src/rDock_2013.1_src/data/scripts/dock_solv.prm

>  <Rbt.Receptor>
prm/pocket_docking_5.prm

>  <SCORE>
-12.2851

>  <SCORE.INTER>
-8.4009

>  <SCORE.INTER.CONST>
1

>  <SCORE.INTER.POLAR>
0

>  <SCORE.INTER.ROT>
7

>  <SCORE.INTER.SOLV>
12.3572

>  <SCORE.INTER.VDW>
-17.9863

>  <SCORE.INTER.norm>
-0.311145

>  <SCORE.INTRA>
-3.88416

>  <SCORE.INTRA.DIHEDRAL>
-8.565

>  <SCORE.INTRA.DIHEDRAL.0>
13.9704

>  <SCORE.INTRA.POLAR>
0

>  <SCORE.INTRA.POLAR.0>
0

>  <SCORE.INTRA.REPUL>
0

>  <SCORE.INTRA.REPUL.0>
0

>  <SCORE.INTRA.SOLV>
1.30779

>  <SCORE.INTRA.SOLV.lig_0>
-70.9758

>  <SCORE.INTRA.VDW>
-0.255553

>  <SCORE.INTRA.VDW.0>
-2.70686

>  <SCORE.INTRA.norm>
-0.143858

>  <SCORE.RESTR>
0

>  <SCORE.RESTR.CAVITY>
0

>  <SCORE.RESTR.norm>
0

>  <SCORE.SYSTEM>
0

>  <SCORE.SYSTEM.CONST>
0

>  <SCORE.SYSTEM.DIHEDRAL>
0

>  <SCORE.SYSTEM.SOLV>
0

>  <SCORE.SYSTEM.norm>
0

>  <SCORE.heavy>
27

>  <SCORE.norm>
-0.455002

>  <RMSD>
5.497

$$$$
ligand
 OpenBabel11021811473D
libRbt.so/2013.1/901 2013/11/27
 27 29  0  0  0  0  0  0  0  0999 V2000
   45.9151   53.4968   29.4402 N   0  0  0  0  0  0  0  0  0  0  0  0
   46.6598   52.9621   28.3024 C   0  0  2  0  0  0  0  0  0  0  0  0
   48.0304   52.3895   28.6696 C   0  0  0  0  0  0  0  0  0  0  0  0
   48.1697   51.8820   29.7325 O   0  0  0  0  0  0  0  0  0  0  0  0
   46.7059   53.8902   27.0705 C   0  0  0  0  0  0  0  0  0  0  0  0
   47.0514   55.3935   27.2595 C   0  0  0  0  0  0  0  0  0  0  0  0
   48.4966   55.6979   27.7364 C   0  0  2  0  0  0  0  0  0  0  0  0
   48.7574   55.2298   29.0976 N   0  0  0  0  0  0  0  0  0  0  0  0
   48.8866   57.1922   27.5173 C   0  0  0  0  0  0  0  0  0  0  0  0
   47.9986   58.3013   28.1760 C   0  0  1  0  0  0  0  0  0  0  0  0
   46.5870   58.3854   27.8190 O   0  0  0  0  0  0  0  0  0  0  0  0
   48.0128   58.3816   29.7281 C   0  0  1  0  0  0  0  0  0  0  0  0
   49.2358   58.7709   30.3669 O   0  0  0  0  0  0  0  0  0  0  0  0
   46.6873   59.1096   30.1117 C   0  0  1  0  0  0  0  0  0  0  0  0
   46.7755   60.4173   30.6246 O   0  0  0  0  0  0  0  0  0  0  0  0
   45.7954   58.8515   28.8933 C   0  0  2  0  0  0  0  0  0  0  0  0
   48.9130   52.0414   27.6276 O   0  0  0  0  0  0  0  0  0  0  0  0
   43.4524   55.6589   32.6088 N   0  0  0  0  0  0  0  0  0  0  0  0
   44.5947   56.4522   32.7664 C   0  0  0  0  0  0  0  0  0  0  0  0
   45.0885   57.2539   31.6491 N   0  0  0  0  0  0  0  0  0  0  0  0
   44.4344   57.2324   30.4462 C   0  0  0  0  0  0  0  0  0  0  0  0
   43.2866   56.4298   30.2955 C   0  0  0  0  0  0  0  0  0  0  0  0
   42.7955   55.6306   31.4093 C   0  0  0  0  0  0  0  0  0  0  0  0
   41.6028   54.7969   31.2549 N   0  0  0  0  0  0  0  0  0  0  0  0
   42.8043   56.5921   28.9457 N   0  0  0  0  0  0  0  0  0  0  0  0
   43.6698   57.4948   28.2843 C   0  0  0  0  0  0  0  0  0  0  0  0
   44.6843   57.9039   29.1972 N   0  0  0  0  0  0  0  0  0  0  0  0
  2  1  1  1  0  0  0
  2  3  1  0  0  0  0
  2  5  1  0  0  0  0
  3  4  1  0  0  0  0
  3 17  1  0  0  0  0
  5  6  1  0  0  0  0
  7  6  1  1  0  0  0
  7  8  1  0  0  0  0
  7  9  1  0  0  0  0
 10  9  1  1  0  0  0
 10 11  1  0  0  0  0
 10 12  1  0  0  0  0
 11 16  1  0  0  0  0
 12 13  1  6  0  0  0
 12 14  1  0  0  0  0
 14 15  1  6  0  0  0
 14 16  1  0  0  0  0
 16 27  1  1  0  0  0
 18 19  2  0  0  0  0
 18 23  1  0  0  0  0
 19 20  1  0  0  0  0
 20 21  2  0  0  0  0
 21 22  1  0  0  0  0
 21 27  1  0  0  0  0
 22 23  2  0  0  0  0
 22 25  1  0  0  0  0
 23 24  1  0  0  0  0
 25 26  2  0  0  0  0
 26 27  1  0  0  0  0
M  END
>  <CHROM.1>
32.37826170,46.97529177,66.49707945,-66.88912677,57.24253060,-59.90576486
121.10035702,46.20338313,56.20095645,29.41941765,0.80067859,-0.47310610,-3.02077315

>  <Name>
ligand

>  <RI>
0

>  <Rbt.Current_Directory>
/home/itssahil/PROJECTS/Mol_Feturizer/New_Systems/rnas/3GX2

>  <Rbt.Executable>
rbdock ($Id: //depot/dev/client3/rdock/2013.1/src/exe/rbdock.cxx#4 $)

>  <Rbt.Library>
libRbt.so (2013.1, Build901 2013/11/27)

>  <Rbt.Parameter_File>
/export/apps/rDock/src/rDock_2013.1_src/data/scripts/dock_solv.prm

>  <Rbt.Receptor>
prm/pocket_docking_6.prm

>  <SCORE>
-10.4438

>  <SCORE.INTER>
-9.00525

>  <SCORE.INTER.CONST>
1

>  <SCORE.INTER.POLAR>
0

>  <SCORE.INTER.ROT>
7

>  <SCORE.INTER.SOLV>
11.8418

>  <SCORE.INTER.VDW>
-18.2174

>  <SCORE.INTER.norm>
-0.333528

>  <SCORE.INTRA>
-1.43852

>  <SCORE.INTRA.DIHEDRAL>
-8.07657

>  <SCORE.INTRA.DIHEDRAL.0>
13.9704

>  <SCORE.INTRA.POLAR>
0

>  <SCORE.INTRA.POLAR.0>
0

>  <SCORE.INTRA.REPUL>
0

>  <SCORE.INTRA.REPUL.0>
0

>  <SCORE.INTRA.SOLV>
6.94754

>  <SCORE.INTRA.SOLV.lig_0>
-70.9758

>  <SCORE.INTRA.VDW>
-0.874005

>  <SCORE.INTRA.VDW.0>
-2.70686

>  <SCORE.INTRA.norm>
-0.0532786

>  <SCORE.RESTR>
0

>  <SCORE.RESTR.CAVITY>
0

>  <SCORE.RESTR.norm>
0

>  <SCORE.SYSTEM>
0

>  <SCORE.SYSTEM.CONST>
0

>  <SCORE.SYSTEM.DIHEDRAL>
0

>  <SCORE.SYSTEM.SOLV>
0

>  <SCORE.SYSTEM.norm>
0

>  <SCORE.heavy>
27

>  <SCORE.norm>
-0.386806

>  <RMSD>
5.510

$$$$
ligand
 OpenBabel11021811473D
libRbt.so/2013.1/901 2013/11/27
 27 29  0  0  0  0  0  0  0  0999 V2000
   50.4450   55.9270   28.0980 N   0  0  0  0  0  0  0  0  0  0  0  0
   49.1646   56.3310   28.6747 C   0  0  2  0  0  0  0  0  0  0  0  0
   48.5180   57.5291   27.9763 C   0  0  0  0  0  0  0  0  0  0  0  0
   48.9890   58.6055   28.1385 O   0  0  0  0  0  0  0  0  0  0  0  0
   49.1636   56.4585   30.2125 C   0  0  0  0  0  0  0  0  0  0  0  0
   47.8259   56.7302   30.9554 C   0  0  0  0  0  0  0  0  0  0  0  0
   46.7871   55.5779   30.9156 C   0  0  2  0  0  0  0  0  0  0  0  0
   45.4431   56.0094   31.2998 N   0  0  0  0  0  0  0  0  0  0  0  0
   47.2734   54.3193   31.6983 C   0  0  0  0  0  0  0  0  0  0  0  0
   47.6849   54.4853   33.2001 C   0  0  1  0  0  0  0  0  0  0  0  0
   46.7137   55.0207   34.1473 O   0  0  0  0  0  0  0  0  0  0  0  0
   48.2707   53.2326   33.9097 C   0  0  1  0  0  0  0  0  0  0  0  0
   49.5404   52.7416   33.4606 O   0  0  0  0  0  0  0  0  0  0  0  0
   48.0462   53.4837   35.4331 C   0  0  1  0  0  0  0  0  0  0  0  0
   49.1740   53.7443   36.2337 O   0  0  0  0  0  0  0  0  0  0  0  0
   46.8851   54.4829   35.4432 C   0  0  2  0  0  0  0  0  0  0  0  0
   47.7350   57.2941   26.8285 O   0  0  0  0  0  0  0  0  0  0  0  0
   42.2914   51.8779   34.1785 N   0  0  0  0  0  0  0  0  0  0  0  0
   43.2987   52.3010   33.3037 C   0  0  0  0  0  0  0  0  0  0  0  0
   44.4754   52.9941   33.8235 N   0  0  0  0  0  0  0  0  0  0  0  0
   44.5962   53.2297   35.1670 C   0  0  0  0  0  0  0  0  0  0  0  0
   43.5770   52.8022   36.0402 C   0  0  0  0  0  0  0  0  0  0  0  0
   42.4043   52.1121   35.5214 C   0  0  0  0  0  0  0  0  0  0  0  0
   41.3449   51.6664   36.4271 N   0  0  0  0  0  0  0  0  0  0  0  0
   43.9546   53.1754   37.3815 N   0  0  0  0  0  0  0  0  0  0  0  0
   45.2056   53.8323   37.3101 C   0  0  0  0  0  0  0  0  0  0  0  0
   45.6203   53.8741   35.9476 N   0  0  0  0  0  0  0  0  0  0  0  0
  2  1  1  6  0  0  0
  2  3  1  0  0  0  0
  2  5  1  0  0  0  0
  3  4  1  0  0  0  0
  3 17  1  0  0  0  0
  5  6  1  0  0  0  0
  7  6  1  1  0  0  0
  7  8  1  0  0  0  0
  7  9  1  0  0  0  0
 10  9  1  6  0  0  0
 10 11  1  0  0  0  0
 10 12  1  0  0  0  0
 11 16  1  0  0  0  0
 12 13  1  1  0  0  0
 12 14  1  0  0  0  0
 14 15  1  6  0  0  0
 14 16  1  0  0  0  0
 16 27  1  6  0  0  0
 18 19  2  0  0  0  0
 18 23  1  0  0  0  0
 19 20  1  0  0  0  0
 20 21  2  0  0  0  0
 21 22  1  0  0  0  0
 21 27  1  0  0  0  0
 22 23  2  0  0  0  0
 22 25  1  0  0  0  0
 23 24  1  0  0  0  0
 25 26  2  0  0  0  0
 26 27  1  0  0  0  0
M  END
>  <CHROM.1>
-72.68926839,-173.40310471,67.53870936,-164.31977992,55.61110162,57.67376426
31.92073919,46.55753364,54.49841285,32.94196885,-1.03996350,0.17983505,1.98968333

>  <Name>
ligand

>  <RI>
0

>  <Rbt.Current_Directory>
/home/itssahil/PROJECTS/Mol_Feturizer/New_Systems/rnas/3GX2

>  <Rbt.Executable>
rbdock ($Id: //depot/dev/client3/rdock/2013.1/src/exe/rbdock.cxx#4 $)

>  <Rbt.Library>
libRbt.so (2013.1, Build901 2013/11/27)

>  <Rbt.Parameter_File>
/export/apps/rDock/src/rDock_2013.1_src/data/scripts/dock_solv.prm

>  <Rbt.Receptor>
prm/pocket_docking_7.prm

>  <SCORE>
-8.94847

>  <SCORE.INTER>
-4.97192

>  <SCORE.INTER.CONST>
1

>  <SCORE.INTER.POLAR>
0

>  <SCORE.INTER.ROT>
7

>  <SCORE.INTER.SOLV>
10.0229

>  <SCORE.INTER.VDW>
-14.9222

>  <SCORE.INTER.norm>
-0.184145

>  <SCORE.INTRA>
-3.98491

>  <SCORE.INTRA.DIHEDRAL>
-8.06387

>  <SCORE.INTRA.DIHEDRAL.0>
13.9704

>  <SCORE.INTRA.POLAR>
0

>  <SCORE.INTRA.POLAR.0>
0

>  <SCORE.INTRA.REPUL>
0

>  <SCORE.INTRA.REPUL.0>
0

>  <SCORE.INTRA.SOLV>
0.405142

>  <SCORE.INTRA.SOLV.lig_0>
-70.9758

>  <SCORE.INTRA.VDW>
-0.155547

>  <SCORE.INTRA.VDW.0>
-2.70686

>  <SCORE.INTRA.norm>
-0.147589

>  <SCORE.RESTR>
0.00835938

>  <SCORE.RESTR.CAVITY>
0.00835938

>  <SCORE.RESTR.norm>
0.000309607

>  <SCORE.SYSTEM>
0

>  <SCORE.SYSTEM.CONST>
0

>  <SCORE.SYSTEM.DIHEDRAL>
0

>  <SCORE.SYSTEM.SOLV>
0

>  <SCORE.SYSTEM.norm>
0

>  <SCORE.heavy>
27

>  <SCORE.norm>
-0.331425

>  <RMSD>
5.518

$$$$
ligand
 OpenBabel11021811483D
libRbt.so/2013.1/901 2013/11/27
 27 29  0  0  0  0  0  0  0  0999 V2000
   47.4317   58.2942   27.9187 N   0  0  0  0  0  0  0  0  0  0  0  0
   48.5008   57.9858   28.8657 C   0  0  2  0  0  0  0  0  0  0  0  0
   49.0694   56.5723   28.7234 C   0  0  0  0  0  0  0  0  0  0  0  0
   48.4071   55.7424   28.1948 O   0  0  0  0  0  0  0  0  0  0  0  0
   48.1931   58.3660   30.3291 C   0  0  0  0  0  0  0  0  0  0  0  0
   49.3533   58.4334   31.3609 C   0  0  0  0  0  0  0  0  0  0  0  0
   48.9321   58.6867   32.8329 C   0  0  2  0  0  0  0  0  0  0  0  0
   50.0562   59.0627   33.6901 N   0  0  0  0  0  0  0  0  0  0  0  0
   48.0850   57.5126   33.4134 C   0  0  0  0  0  0  0  0  0  0  0  0
   48.7985   56.1502   33.7087 C   0  0  1  0  0  0  0  0  0  0  0  0
   49.1985   55.8402   35.0766 O   0  0  0  0  0  0  0  0  0  0  0  0
   48.0852   54.8622   33.2105 C   0  0  1  0  0  0  0  0  0  0  0  0
   47.9694   54.6662   31.7951 O   0  0  0  0  0  0  0  0  0  0  0  0
   48.6561   53.7109   34.0952 C   0  0  1  0  0  0  0  0  0  0  0  0
   49.5108   52.7719   33.4880 O   0  0  0  0  0  0  0  0  0  0  0  0
   49.1412   54.4535   35.3442 C   0  0  2  0  0  0  0  0  0  0  0  0
   50.4680   56.4048   28.7628 O   0  0  0  0  0  0  0  0  0  0  0  0
   44.1029   54.0909   37.3370 N   0  0  0  0  0  0  0  0  0  0  0  0
   44.4798   54.4205   36.0300 C   0  0  0  0  0  0  0  0  0  0  0  0
   45.8944   54.4715   35.6674 N   0  0  0  0  0  0  0  0  0  0  0  0
   46.8541   54.1953   36.6044 C   0  0  0  0  0  0  0  0  0  0  0  0
   46.4662   53.8663   37.9179 C   0  0  0  0  0  0  0  0  0  0  0  0
   45.0563   53.8164   38.2787 C   0  0  0  0  0  0  0  0  0  0  0  0
   44.6513   53.4739   39.6426 N   0  0  0  0  0  0  0  0  0  0  0  0
   47.6621   53.6275   38.6885 N   0  0  0  0  0  0  0  0  0  0  0  0
   48.7719   53.8173   37.8318 C   0  0  0  0  0  0  0  0  0  0  0  0
   48.2922   54.1675   36.5367 N   0  0  0  0  0  0  0  0  0  0  0  0
  2  1  1  6  0  0  0
  2  3  1  0  0  0  0
  2  5  1  0  0  0  0
  3  4  1  0  0  0  0
  3 17  1  0  0  0  0
  5  6  1  0  0  0  0
  7  6  1  6  0  0  0
  7  8  1  0  0  0  0
  7  9  1  0  0  0  0
 10  9  1  1  0  0  0
 10 11  1  0  0  0  0
 10 12  1  0  0  0  0
 11 16  1  0  0  0  0
 12 13  1  6  0  0  0
 12 14  1  0  0  0  0
 14 15  1  6  0  0  0
 14 16  1  0  0  0  0
 16 27  1  1  0  0  0
 18 19  2  0  0  0  0
 18 23  1  0  0  0  0
 19 20  1  0  0  0  0
 20 21  2  0  0  0  0
 21 22  1  0  0  0  0
 21 27  1  0  0  0  0
 22 23  2  0  0  0  0
 22 25  1  0  0  0  0
 23 24  1  0  0  0  0
 25 26  2  0  0  0  0
 26 27  1  0  0  0  0
M  END
>  <CHROM.1>
-21.60537191,-164.42247725,-174.23890481,-165.93557243,70.83198246,99.57146655
75.35966339,47.91351957,55.55486821,33.77168527,1.27222713,-0.28571313,-1.25284931

>  <Name>
ligand

>  <RI>
0

>  <Rbt.Current_Directory>
/home/itssahil/PROJECTS/Mol_Feturizer/New_Systems/rnas/3GX2

>  <Rbt.Executable>
rbdock ($Id: //depot/dev/client3/rdock/2013.1/src/exe/rbdock.cxx#4 $)

>  <Rbt.Library>
libRbt.so (2013.1, Build901 2013/11/27)

>  <Rbt.Parameter_File>
/export/apps/rDock/src/rDock_2013.1_src/data/scripts/dock_solv.prm

>  <Rbt.Receptor>
prm/pocket_docking_8.prm

>  <SCORE>
-13.7208

>  <SCORE.INTER>
-11.9611

>  <SCORE.INTER.CONST>
1

>  <SCORE.INTER.POLAR>
0

>  <SCORE.INTER.ROT>
7

>  <SCORE.INTER.SOLV>
18.7179

>  <SCORE.INTER.VDW>
-22.4801

>  <SCORE.INTER.norm>
-0.443004

>  <SCORE.INTRA>
-1.75965

>  <SCORE.INTRA.DIHEDRAL>
-3.3585

>  <SCORE.INTRA.DIHEDRAL.0>
13.9704

>  <SCORE.INTRA.POLAR>
0

>  <SCORE.INTRA.POLAR.0>
0

>  <SCORE.INTRA.REPUL>
0

>  <SCORE.INTRA.REPUL.0>
0

>  <SCORE.INTRA.SOLV>
0.477645

>  <SCORE.INTRA.SOLV.lig_0>
-70.9758

>  <SCORE.INTRA.VDW>
-0.319225

>  <SCORE.INTRA.VDW.0>
-2.70686

>  <SCORE.INTRA.norm>
-0.0651722

>  <SCORE.RESTR>
0

>  <SCORE.RESTR.CAVITY>
0

>  <SCORE.RESTR.norm>
0

>  <SCORE.SYSTEM>
0

>  <SCORE.SYSTEM.CONST>
0

>  <SCORE.SYSTEM.DIHEDRAL>
0

>  <SCORE.SYSTEM.SOLV>
0

>  <SCORE.SYSTEM.norm>
0

>  <SCORE.heavy>
27

>  <SCORE.norm>
-0.508176

>  <RMSD>
5.549

$$$$
ligand
 OpenBabel11021811483D
libRbt.so/2013.1/901 2013/11/27
 27 29  0  0  0  0  0  0  0  0999 V2000
   46.5027   58.6404   28.9997 N   0  0  0  0  0  0  0  0  0  0  0  0
   46.7433   58.9056   30.4163 C   0  0  2  0  0  0  0  0  0  0  0  0
   48.1682   59.3669   30.7297 C   0  0  0  0  0  0  0  0  0  0  0  0
   49.0571   58.9719   30.0510 O   0  0  0  0  0  0  0  0  0  0  0  0
   46.2450   57.8005   31.3711 C   0  0  0  0  0  0  0  0  0  0  0  0
   46.5792   57.8923   32.8860 C   0  0  0  0  0  0  0  0  0  0  0  0
   47.7993   57.0578   33.3586 C   0  0  2  0  0  0  0  0  0  0  0  0
   49.0173   57.3523   32.6038 N   0  0  0  0  0  0  0  0  0  0  0  0
   47.4775   55.5332   33.4314 C   0  0  0  0  0  0  0  0  0  0  0  0
   46.4933   55.0287   34.5401 C   0  0  1  0  0  0  0  0  0  0  0  0
   45.1488   55.5902   34.6048 O   0  0  0  0  0  0  0  0  0  0  0  0
   46.2788   53.4926   34.6418 C   0  0  1  0  0  0  0  0  0  0  0  0
   47.3915   52.6873   35.0523 O   0  0  0  0  0  0  0  0  0  0  0  0
   44.9055   53.3186   35.3613 C   0  0  1  0  0  0  0  0  0  0  0  0
   44.9067   52.8181   36.6768 O   0  0  0  0  0  0  0  0  0  0  0  0
   44.2043   54.6508   35.0774 C   0  0  2  0  0  0  0  0  0  0  0  0
   48.3420   60.5652   31.4505 O   0  0  0  0  0  0  0  0  0  0  0  0
   42.0603   56.1335   30.3138 N   0  0  0  0  0  0  0  0  0  0  0  0
   43.2679   56.5643   30.8748 C   0  0  0  0  0  0  0  0  0  0  0  0
   43.6917   56.0564   32.1777 N   0  0  0  0  0  0  0  0  0  0  0  0
   42.9095   55.1569   32.8518 C   0  0  0  0  0  0  0  0  0  0  0  0
   41.6947   54.7300   32.2809 C   0  0  0  0  0  0  0  0  0  0  0  0
   41.2727   55.2372   30.9828 C   0  0  0  0  0  0  0  0  0  0  0  0
   40.0114   54.7941   30.3876 N   0  0  0  0  0  0  0  0  0  0  0  0
   41.0788   53.7963   33.1918 N   0  0  0  0  0  0  0  0  0  0  0  0
   41.9287   53.6658   34.3153 C   0  0  0  0  0  0  0  0  0  0  0  0
   43.0684   54.4989   34.1227 N   0  0  0  0  0  0  0  0  0  0  0  0
  2  1  1  6  0  0  0
  2  3  1  0  0  0  0
  2  5  1  0  0  0  0
  3  4  1  0  0  0  0
  3 17  1  0  0  0  0
  5  6  1  0  0  0  0
  7  6  1  6  0  0  0
  7  8  1  0  0  0  0
  7  9  1  0  0  0  0
 10  9  1  6  0  0  0
 10 11  1  0  0  0  0
 10 12  1  0  0  0  0
 11 16  1  0  0  0  0
 12 13  1  1  0  0  0
 12 14  1  0  0  0  0
 14 15  1  1  0  0  0
 14 16  1  0  0  0  0
 16 27  1  6  0  0  0
 18 19  2  0  0  0  0
 18 23  1  0  0  0  0
 19 20  1  0  0  0  0
 20 21  2  0  0  0  0
 21 22  1  0  0  0  0
 21 27  1  0  0  0  0
 22 23  2  0  0  0  0
 22 25  1  0  0  0  0
 23 24  1  0  0  0  0
 25 26  2  0  0  0  0
 26 27  1  0  0  0  0
M  END
>  <CHROM.1>
-30.97063854,173.39217058,-97.78849481,54.57394753,-69.45214290,57.14423344
1.86350577,45.14941928,55.96511596,32.71555311,0.76432910,-0.33510424,-0.83678470

>  <Name>
ligand

>  <RI>
0

>  <Rbt.Current_Directory>
/home/itssahil/PROJECTS/Mol_Feturizer/New_Systems/rnas/3GX2

>  <Rbt.Executable>
rbdock ($Id: //depot/dev/client3/rdock/2013.1/src/exe/rbdock.cxx#4 $)

>  <Rbt.Library>
libRbt.so (2013.1, Build901 2013/11/27)

>  <Rbt.Parameter_File>
/export/apps/rDock/src/rDock_2013.1_src/data/scripts/dock_solv.prm

>  <Rbt.Receptor>
prm/pocket_docking_8.prm

>  <SCORE>
-9.1097

>  <SCORE.INTER>
-8.07909

>  <SCORE.INTER.CONST>
1

>  <SCORE.INTER.POLAR>
0

>  <SCORE.INTER.ROT>
7

>  <SCORE.INTER.SOLV>
13.1473

>  <SCORE.INTER.VDW>
-18.0352

>  <SCORE.INTER.norm>
-0.299226

>  <SCORE.INTRA>
-1.03061

>  <SCORE.INTRA.DIHEDRAL>
-4.66418

>  <SCORE.INTRA.DIHEDRAL.0>
13.9704

>  <SCORE.INTRA.POLAR>
0

>  <SCORE.INTRA.POLAR.0>
0

>  <SCORE.INTRA.REPUL>
0

>  <SCORE.INTRA.REPUL.0>
0

>  <SCORE.INTRA.SOLV>
3.37979

>  <SCORE.INTRA.SOLV.lig_0>
-70.9758

>  <SCORE.INTRA.VDW>
-0.388413

>  <SCORE.INTRA.VDW.0>
-2.70686

>  <SCORE.INTRA.norm>
-0.0381706

>  <SCORE.RESTR>
0

>  <SCORE.RESTR.CAVITY>
0

>  <SCORE.RESTR.norm>
0

>  <SCORE.SYSTEM>
0

>  <SCORE.SYSTEM.CONST>
0

>  <SCORE.SYSTEM.DIHEDRAL>
0

>  <SCORE.SYSTEM.SOLV>
0

>  <SCORE.SYSTEM.norm>
0

>  <SCORE.heavy>
27

>  <SCORE.norm>
-0.337396

>  <RMSD>
5.556

$$$$
ligand
 OpenBabel11021811473D
libRbt.so/2013.1/901 2013/11/27
 27 29  0  0  0  0  0  0  0  0999 V2000
   50.8643   53.3553   27.0887 N   0  0  0  0  0  0  0  0  0  0  0  0
   50.6320   54.3617   28.1223 C   0  0  2  0  0  0  0  0  0  0  0  0
   51.3075   55.7062   27.8444 C   0  0  0  0  0  0  0  0  0  0  0  0
   52.4330   55.7119   27.4703 O   0  0  0  0  0  0  0  0  0  0  0  0
   50.8539   53.8639   29.5660 C   0  0  0  0  0  0  0  0  0  0  0  0
   49.8145   52.9059   30.2117 C   0  0  0  0  0  0  0  0  0  0  0  0
   48.4159   53.5182   30.4900 C   0  0  2  0  0  0  0  0  0  0  0  0
   47.7150   53.9152   29.2689 N   0  0  0  0  0  0  0  0  0  0  0  0
   48.4715   54.6515   31.5603 C   0  0  0  0  0  0  0  0  0  0  0  0
   47.1260   55.2916   32.0424 C   0  0  1  0  0  0  0  0  0  0  0  0
   46.2023   54.4890   32.8360 O   0  0  0  0  0  0  0  0  0  0  0  0
   47.2253   56.6409   32.8075 C   0  0  1  0  0  0  0  0  0  0  0  0
   47.6854   57.7890   32.0827 O   0  0  0  0  0  0  0  0  0  0  0  0
   45.9059   56.7398   33.6343 C   0  0  1  0  0  0  0  0  0  0  0  0
   44.9523   57.6992   33.2456 O   0  0  0  0  0  0  0  0  0  0  0  0
   45.4740   55.2753   33.7575 C   0  0  2  0  0  0  0  0  0  0  0  0
   50.4923   56.8220   27.5683 O   0  0  0  0  0  0  0  0  0  0  0  0
   48.9082   53.8891   37.7289 N   0  0  0  0  0  0  0  0  0  0  0  0
   49.2296   54.3786   36.4577 C   0  0  0  0  0  0  0  0  0  0  0  0
   48.1672   54.7016   35.5080 N   0  0  0  0  0  0  0  0  0  0  0  0
   46.8552   54.5281   35.8598 C   0  0  0  0  0  0  0  0  0  0  0  0
   46.5405   54.0332   37.1405 C   0  0  0  0  0  0  0  0  0  0  0  0
   47.5999   53.7107   38.0862 C   0  0  0  0  0  0  0  0  0  0  0  0
   47.2749   53.1974   39.4174 N   0  0  0  0  0  0  0  0  0  0  0  0
   45.1042   53.9479   37.2441 N   0  0  0  0  0  0  0  0  0  0  0  0
   44.5565   54.3917   36.0174 C   0  0  0  0  0  0  0  0  0  0  0  0
   45.6246   54.7571   35.1481 N   0  0  0  0  0  0  0  0  0  0  0  0
  2  1  1  6  0  0  0
  2  3  1  0  0  0  0
  2  5  1  0  0  0  0
  3  4  1  0  0  0  0
  3 17  1  0  0  0  0
  5  6  1  0  0  0  0
  7  6  1  6  0  0  0
  7  8  1  0  0  0  0
  7  9  1  0  0  0  0
 10  9  1  1  0  0  0
 10 11  1  0  0  0  0
 10 12  1  0  0  0  0
 11 16  1  0  0  0  0
 12 13  1  6  0  0  0
 12 14  1  0  0  0  0
 14 15  1  6  0  0  0
 14 16  1  0  0  0  0
 16 27  1  1  0  0  0
 18 19  2  0  0  0  0
 18 23  1  0  0  0  0
 19 20  1  0  0  0  0
 20 21  2  0  0  0  0
 21 22  1  0  0  0  0
 21 27  1  0  0  0  0
 22 23  2  0  0  0  0
 22 25  1  0  0  0  0
 23 24  1  0  0  0  0
 25 26  2  0  0  0  0
 26 27  1  0  0  0  0
M  END
>  <CHROM.1>
-45.06802886,-73.17659146,-67.32637605,64.08641144,-174.98125747,68.48591451
55.16079325,48.01615146,54.87629931,32.76379084,-1.03723708,-0.58150314,1.94533452

>  <Name>
ligand

>  <RI>
0

>  <Rbt.Current_Directory>
/home/itssahil/PROJECTS/Mol_Feturizer/New_Systems/rnas/3GX2

>  <Rbt.Executable>
rbdock ($Id: //depot/dev/client3/rdock/2013.1/src/exe/rbdock.cxx#4 $)

>  <Rbt.Library>
libRbt.so (2013.1, Build901 2013/11/27)

>  <Rbt.Parameter_File>
/export/apps/rDock/src/rDock_2013.1_src/data/scripts/dock_solv.prm

>  <Rbt.Receptor>
prm/pocket_docking_7.prm

>  <SCORE>
-14.8434

>  <SCORE.INTER>
-11.8189

>  <SCORE.INTER.CONST>
1

>  <SCORE.INTER.POLAR>
0

>  <SCORE.INTER.ROT>
7

>  <SCORE.INTER.SOLV>
11.525

>  <SCORE.INTER.VDW>
-19.9876

>  <SCORE.INTER.norm>
-0.437738

>  <SCORE.INTRA>
-3.0271

>  <SCORE.INTRA.DIHEDRAL>
-8.28275

>  <SCORE.INTRA.DIHEDRAL.0>
13.9704

>  <SCORE.INTRA.POLAR>
0

>  <SCORE.INTRA.POLAR.0>
0

>  <SCORE.INTRA.REPUL>
0

>  <SCORE.INTRA.REPUL.0>
0

>  <SCORE.INTRA.SOLV>
2.83073

>  <SCORE.INTRA.SOLV.lig_0>
-70.9758

>  <SCORE.INTRA.VDW>
-0.301094

>  <SCORE.INTRA.VDW.0>
-2.70686

>  <SCORE.INTRA.norm>
-0.112115

>  <SCORE.RESTR>
0.00261238

>  <SCORE.RESTR.CAVITY>
0.00261238

>  <SCORE.RESTR.norm>
9.67549e-05

>  <SCORE.SYSTEM>
0

>  <SCORE.SYSTEM.CONST>
0

>  <SCORE.SYSTEM.DIHEDRAL>
0

>  <SCORE.SYSTEM.SOLV>
0

>  <SCORE.SYSTEM.norm>
0

>  <SCORE.heavy>
27

>  <SCORE.norm>
-0.549756

>  <RMSD>
5.567

$$$$
ligand
 OpenBabel11021811473D
libRbt.so/2013.1/901 2013/11/27
 27 29  0  0  0  0  0  0  0  0999 V2000
   51.7011   54.7367   27.2778 N   0  0  0  0  0  0  0  0  0  0  0  0
   51.0154   53.4866   27.5974 C   0  0  2  0  0  0  0  0  0  0  0  0
   51.1484   52.4104   26.5178 C   0  0  0  0  0  0  0  0  0  0  0  0
   50.9324   52.7055   25.3895 O   0  0  0  0  0  0  0  0  0  0  0  0
   49.5668   53.6581   28.1007 C   0  0  0  0  0  0  0  0  0  0  0  0
   49.2548   54.7347   29.1772 C   0  0  0  0  0  0  0  0  0  0  0  0
   49.9552   54.5392   30.5482 C   0  0  2  0  0  0  0  0  0  0  0  0
   49.6524   53.2469   31.1631 N   0  0  0  0  0  0  0  0  0  0  0  0
   49.7170   55.7453   31.5084 C   0  0  0  0  0  0  0  0  0  0  0  0
   48.2460   56.2154   31.7680 C   0  0  1  0  0  0  0  0  0  0  0  0
   47.2695   55.2516   32.2627 O   0  0  0  0  0  0  0  0  0  0  0  0
   48.0578   57.4617   32.6775 C   0  0  1  0  0  0  0  0  0  0  0  0
   48.5340   58.7233   32.1909 O   0  0  0  0  0  0  0  0  0  0  0  0
   46.5987   57.3554   33.2196 C   0  0  1  0  0  0  0  0  0  0  0  0
   45.6488   58.2805   32.7476 O   0  0  0  0  0  0  0  0  0  0  0  0
   46.2997   55.8583   33.0929 C   0  0  2  0  0  0  0  0  0  0  0  0
   51.9575   51.2882   26.7855 O   0  0  0  0  0  0  0  0  0  0  0  0
   49.0497   54.0040   37.3925 N   0  0  0  0  0  0  0  0  0  0  0  0
   49.5699   54.6344   36.2564 C   0  0  0  0  0  0  0  0  0  0  0  0
   48.6746   55.0710   35.1874 N   0  0  0  0  0  0  0  0  0  0  0  0
   47.3249   54.8661   35.2952 C   0  0  0  0  0  0  0  0  0  0  0  0
   46.8098   54.2292   36.4411 C   0  0  0  0  0  0  0  0  0  0  0  0
   47.7028   53.7937   37.5058 C   0  0  0  0  0  0  0  0  0  0  0  0
   47.1694   53.1328   38.6974 N   0  0  0  0  0  0  0  0  0  0  0  0
   45.3773   54.1412   36.2953 N   0  0  0  0  0  0  0  0  0  0  0  0
   45.0337   54.7264   35.0539 C   0  0  0  0  0  0  0  0  0  0  0  0
   46.2256   55.1829   34.4208 N   0  0  0  0  0  0  0  0  0  0  0  0
  2  1  1  6  0  0  0
  2  3  1  0  0  0  0
  2  5  1  0  0  0  0
  3  4  1  0  0  0  0
  3 17  1  0  0  0  0
  5  6  1  0  0  0  0
  7  6  1  6  0  0  0
  7  8  1  0  0  0  0
  7  9  1  0  0  0  0
 10  9  1  1  0  0  0
 10 11  1  0  0  0  0
 10 12  1  0  0  0  0
 11 16  1  0  0  0  0
 12 13  1  6  0  0  0
 12 14  1  0  0  0  0
 14 15  1  6  0  0  0
 14 16  1  0  0  0  0
 16 27  1  1  0  0  0
 18 19  2  0  0  0  0
 18 23  1  0  0  0  0
 19 20  1  0  0  0  0
 20 21  2  0  0  0  0
 21 22  1  0  0  0  0
 21 27  1  0  0  0  0
 22 23  2  0  0  0  0
 22 25  1  0  0  0  0
 23 24  1  0  0  0  0
 25 26  2  0  0  0  0
 26 27  1  0  0  0  0
M  END
>  <CHROM.1>
-48.51579861,-45.82204776,-62.45417547,-57.30896351,52.47113800,55.71439115
49.82345394,48.49980219,54.80700895,32.25368257,0.75689805,0.98761537,-1.03512332

>  <Name>
ligand

>  <RI>
0

>  <Rbt.Current_Directory>
/home/itssahil/PROJECTS/Mol_Feturizer/New_Systems/rnas/3GX2

>  <Rbt.Executable>
rbdock ($Id: //depot/dev/client3/rdock/2013.1/src/exe/rbdock.cxx#4 $)

>  <Rbt.Library>
libRbt.so (2013.1, Build901 2013/11/27)

>  <Rbt.Parameter_File>
/export/apps/rDock/src/rDock_2013.1_src/data/scripts/dock_solv.prm

>  <Rbt.Receptor>
prm/pocket_docking_5.prm

>  <SCORE>
-11.6

>  <SCORE.INTER>
-8.06007

>  <SCORE.INTER.CONST>
1

>  <SCORE.INTER.POLAR>
0

>  <SCORE.INTER.ROT>
7

>  <SCORE.INTER.SOLV>
14.9345

>  <SCORE.INTER.VDW>
-18.6182

>  <SCORE.INTER.norm>
-0.298521

>  <SCORE.INTRA>
-3.53991

>  <SCORE.INTRA.DIHEDRAL>
-8.71383

>  <SCORE.INTRA.DIHEDRAL.0>
13.9704

>  <SCORE.INTRA.POLAR>
0

>  <SCORE.INTRA.POLAR.0>
0

>  <SCORE.INTRA.REPUL>
0

>  <SCORE.INTRA.REPUL.0>
0

>  <SCORE.INTRA.SOLV>
2.36155

>  <SCORE.INTRA.SOLV.lig_0>
-70.9758

>  <SCORE.INTRA.VDW>
-0.363765

>  <SCORE.INTRA.VDW.0>
-2.70686

>  <SCORE.INTRA.norm>
-0.131108

>  <SCORE.RESTR>
0

>  <SCORE.RESTR.CAVITY>
0

>  <SCORE.RESTR.norm>
0

>  <SCORE.SYSTEM>
0

>  <SCORE.SYSTEM.CONST>
0

>  <SCORE.SYSTEM.DIHEDRAL>
0

>  <SCORE.SYSTEM.SOLV>
0

>  <SCORE.SYSTEM.norm>
0

>  <SCORE.heavy>
27

>  <SCORE.norm>
-0.429629

>  <RMSD>
5.579

$$$$
ligand
 OpenBabel11021811473D
libRbt.so/2013.1/901 2013/11/27
 27 29  0  0  0  0  0  0  0  0999 V2000
   45.7098   60.6985   31.9046 N   0  0  0  0  0  0  0  0  0  0  0  0
   46.2723   59.4757   31.3359 C   0  0  2  0  0  0  0  0  0  0  0  0
   45.7293   58.1904   31.9639 C   0  0  0  0  0  0  0  0  0  0  0  0
   44.7367   58.2475   32.6106 O   0  0  0  0  0  0  0  0  0  0  0  0
   47.8095   59.4770   31.2017 C   0  0  0  0  0  0  0  0  0  0  0  0
   48.4998   58.4005   30.3186 C   0  0  0  0  0  0  0  0  0  0  0  0
   48.1149   58.4143   28.8152 C   0  0  2  0  0  0  0  0  0  0  0  0
   46.7993   57.8282   28.5590 N   0  0  0  0  0  0  0  0  0  0  0  0
   49.2383   57.8152   27.9141 C   0  0  0  0  0  0  0  0  0  0  0  0
   49.4903   56.2703   27.9606 C   0  0  1  0  0  0  0  0  0  0  0  0
   49.9098   55.6569   29.2155 O   0  0  0  0  0  0  0  0  0  0  0  0
   48.3434   55.3565   27.4452 C   0  0  1  0  0  0  0  0  0  0  0  0
   48.0186   55.4128   26.0501 O   0  0  0  0  0  0  0  0  0  0  0  0
   48.5942   53.9695   28.1141 C   0  0  1  0  0  0  0  0  0  0  0  0
   49.0215   52.9078   27.2949 O   0  0  0  0  0  0  0  0  0  0  0  0
   49.4278   54.3347   29.3464 C   0  0  2  0  0  0  0  0  0  0  0  0
   46.1011   56.9564   31.3941 O   0  0  0  0  0  0  0  0  0  0  0  0
   48.6794   56.0283   34.4512 N   0  0  0  0  0  0  0  0  0  0  0  0
   49.5948   56.5235   33.5155 C   0  0  0  0  0  0  0  0  0  0  0  0
   49.6593   55.9419   32.1766 N   0  0  0  0  0  0  0  0  0  0  0  0
   48.8235   54.9128   31.8337 C   0  0  0  0  0  0  0  0  0  0  0  0
   47.9065   54.4191   32.7820 C   0  0  0  0  0  0  0  0  0  0  0  0
   47.8433   54.9986   34.1164 C   0  0  0  0  0  0  0  0  0  0  0  0
   46.8906   54.4877   35.1027 N   0  0  0  0  0  0  0  0  0  0  0  0
   47.1611   53.3491   32.1652 N   0  0  0  0  0  0  0  0  0  0  0  0
   47.6367   53.2000   30.8411 C   0  0  0  0  0  0  0  0  0  0  0  0
   48.6648   54.1605   30.6162 N   0  0  0  0  0  0  0  0  0  0  0  0
  2  1  1  1  0  0  0
  2  3  1  0  0  0  0
  2  5  1  0  0  0  0
  3  4  1  0  0  0  0
  3 17  1  0  0  0  0
  5  6  1  0  0  0  0
  7  6  1  1  0  0  0
  7  8  1  0  0  0  0
  7  9  1  0  0  0  0
 10  9  1  1  0  0  0
 10 11  1  0  0  0  0
 10 12  1  0  0  0  0
 11 16  1  0  0  0  0
 12 13  1  6  0  0  0
 12 14  1  0  0  0  0
 14 15  1  6  0  0  0
 14 16  1  0  0  0  0
 16 27  1  1  0  0  0
 18 19  2  0  0  0  0
 18 23  1  0  0  0  0
 19 20  1  0  0  0  0
 20 21  2  0  0  0  0
 21 22  1  0  0  0  0
 21 27  1  0  0  0  0
 22 23  2  0  0  0  0
 22 25  1  0  0  0  0
 23 24  1  0  0  0  0
 25 26  2  0  0  0  0
 26 27  1  0  0  0  0
M  END
>  <CHROM.1>
16.07321652,-165.66156033,61.35077598,-76.66578830,71.52907400,-61.95694556
-26.37822199,47.92864830,56.22229019,30.64296283,2.58052091,-1.16293577,2.08152513

>  <Name>
ligand

>  <RI>
0

>  <Rbt.Current_Directory>
/home/itssahil/PROJECTS/Mol_Feturizer/New_Systems/rnas/3GX2

>  <Rbt.Executable>
rbdock ($Id: //depot/dev/client3/rdock/2013.1/src/exe/rbdock.cxx#4 $)

>  <Rbt.Library>
libRbt.so (2013.1, Build901 2013/11/27)

>  <Rbt.Parameter_File>
/export/apps/rDock/src/rDock_2013.1_src/data/scripts/dock_solv.prm

>  <Rbt.Receptor>
prm/pocket_docking_2.prm

>  <SCORE>
-6.12364

>  <SCORE.INTER>
-3.51772

>  <SCORE.INTER.CONST>
1

>  <SCORE.INTER.POLAR>
0

>  <SCORE.INTER.ROT>
7

>  <SCORE.INTER.SOLV>
13.4366

>  <SCORE.INTER.VDW>
-15.0907

>  <SCORE.INTER.norm>
-0.130286

>  <SCORE.INTRA>
-2.90697

>  <SCORE.INTRA.DIHEDRAL>
-6.91106

>  <SCORE.INTRA.DIHEDRAL.0>
13.9704

>  <SCORE.INTRA.POLAR>
0

>  <SCORE.INTRA.POLAR.0>
0

>  <SCORE.INTRA.REPUL>
0

>  <SCORE.INTRA.REPUL.0>
0

>  <SCORE.INTRA.SOLV>
4.82148

>  <SCORE.INTRA.SOLV.lig_0>
-70.9758

>  <SCORE.INTRA.VDW>
-1.86218

>  <SCORE.INTRA.VDW.0>
-2.70686

>  <SCORE.INTRA.norm>
-0.107666

>  <SCORE.RESTR>
0.301055

>  <SCORE.RESTR.CAVITY>
0.301055

>  <SCORE.RESTR.norm>
0.0111502

>  <SCORE.SYSTEM>
0

>  <SCORE.SYSTEM.CONST>
0

>  <SCORE.SYSTEM.DIHEDRAL>
0

>  <SCORE.SYSTEM.SOLV>
0

>  <SCORE.SYSTEM.norm>
0

>  <SCORE.heavy>
27

>  <SCORE.norm>
-0.226801

>  <RMSD>
5.583

$$$$
ligand
 OpenBabel11021811473D
libRbt.so/2013.1/901 2013/11/27
 27 29  0  0  0  0  0  0  0  0999 V2000
   47.7944   61.4592   32.3449 N   0  0  0  0  0  0  0  0  0  0  0  0
   47.1107   60.6267   31.3576 C   0  0  2  0  0  0  0  0  0  0  0  0
   45.6684   60.2773   31.7302 C   0  0  0  0  0  0  0  0  0  0  0  0
   44.8408   61.1242   31.6606 O   0  0  0  0  0  0  0  0  0  0  0  0
   47.9205   59.4048   30.8755 C   0  0  0  0  0  0  0  0  0  0  0  0
   48.1936   58.2333   31.8594 C   0  0  0  0  0  0  0  0  0  0  0  0
   48.9099   58.6170   33.1816 C   0  0  2  0  0  0  0  0  0  0  0  0
   49.8945   59.6846   33.0067 N   0  0  0  0  0  0  0  0  0  0  0  0
   49.4832   57.3706   33.9240 C   0  0  0  0  0  0  0  0  0  0  0  0
   48.5608   56.1182   34.1051 C   0  0  1  0  0  0  0  0  0  0  0  0
   47.6847   55.7174   33.0101 O   0  0  0  0  0  0  0  0  0  0  0  0
   49.2488   54.7993   34.5557 C   0  0  1  0  0  0  0  0  0  0  0  0
   49.8179   54.7568   35.8708 O   0  0  0  0  0  0  0  0  0  0  0  0
   48.2821   53.6600   34.1064 C   0  0  1  0  0  0  0  0  0  0  0  0
   47.5848   52.9528   35.1036 O   0  0  0  0  0  0  0  0  0  0  0  0
   47.4879   54.3182   32.9737 C   0  0  2  0  0  0  0  0  0  0  0  0
   45.2684   58.9275   31.6705 O   0  0  0  0  0  0  0  0  0  0  0  0
   50.5030   54.8477   28.4887 N   0  0  0  0  0  0  0  0  0  0  0  0
   50.4897   55.6859   29.6094 C   0  0  0  0  0  0  0  0  0  0  0  0
   49.6067   55.3884   30.7350 N   0  0  0  0  0  0  0  0  0  0  0  0
   48.7919   54.2884   30.6968 C   0  0  0  0  0  0  0  0  0  0  0  0
   48.8102   53.4511   29.5642 C   0  0  0  0  0  0  0  0  0  0  0  0
   49.6899   53.7487   28.4426 C   0  0  0  0  0  0  0  0  0  0  0  0
   49.7109   52.8794   27.2655 N   0  0  0  0  0  0  0  0  0  0  0  0
   47.8666   52.3827   29.7855 N   0  0  0  0  0  0  0  0  0  0  0  0
   47.2784   52.5833   31.0565 C   0  0  0  0  0  0  0  0  0  0  0  0
   47.8397   53.7571   31.6372 N   0  0  0  0  0  0  0  0  0  0  0  0
  2  1  1  1  0  0  0
  2  3  1  0  0  0  0
  2  5  1  0  0  0  0
  3  4  1  0  0  0  0
  3 17  1  0  0  0  0
  5  6  1  0  0  0  0
  7  6  1  6  0  0  0
  7  8  1  0  0  0  0
  7  9  1  0  0  0  0
 10  9  1  6  0  0  0
 10 11  1  0  0  0  0
 10 12  1  0  0  0  0
 11 16  1  0  0  0  0
 12 13  1  1  0  0  0
 12 14  1  0  0  0  0
 14 15  1  1  0  0  0
 14 16  1  0  0  0  0
 16 27  1  6  0  0  0
 18 19  2  0  0  0  0
 18 23  1  0  0  0  0
 19 20  1  0  0  0  0
 20 21  2  0  0  0  0
 21 22  1  0  0  0  0
 21 27  1  0  0  0  0
 22 23  2  0  0  0  0
 22 25  1  0  0  0  0
 23 24  1  0  0  0  0
 25 26  2  0  0  0  0
 26 27  1  0  0  0  0
M  END
>  <CHROM.1>
72.86950880,68.88014396,-56.49542658,-35.38460751,-47.33708687,39.64933911
27.64420058,48.26359941,56.24791876,31.87210352,-3.10680112,-1.30241080,1.81061265

>  <Name>
ligand

>  <RI>
0

>  <Rbt.Current_Directory>
/home/itssahil/PROJECTS/Mol_Feturizer/New_Systems/rnas/3GX2

>  <Rbt.Executable>
rbdock ($Id: //depot/dev/client3/rdock/2013.1/src/exe/rbdock.cxx#4 $)

>  <Rbt.Library>
libRbt.so (2013.1, Build901 2013/11/27)

>  <Rbt.Parameter_File>
/export/apps/rDock/src/rDock_2013.1_src/data/scripts/dock_solv.prm

>  <Rbt.Receptor>
prm/pocket_docking_2.prm

>  <SCORE>
-8.50196

>  <SCORE.INTER>
-9.3571

>  <SCORE.INTER.CONST>
1

>  <SCORE.INTER.POLAR>
0

>  <SCORE.INTER.ROT>
7

>  <SCORE.INTER.SOLV>
22.2568

>  <SCORE.INTER.VDW>
-21.9237

>  <SCORE.INTER.norm>
-0.346559

>  <SCORE.INTRA>
0.0820022

>  <SCORE.INTRA.DIHEDRAL>
-5.44833

>  <SCORE.INTRA.DIHEDRAL.0>
13.9704

>  <SCORE.INTRA.POLAR>
0

>  <SCORE.INTRA.POLAR.0>
0

>  <SCORE.INTRA.REPUL>
0.0220615

>  <SCORE.INTRA.REPUL.0>
0

>  <SCORE.INTRA.SOLV>
4.26566

>  <SCORE.INTRA.SOLV.lig_0>
-70.9758

>  <SCORE.INTRA.VDW>
0.563031

>  <SCORE.INTRA.VDW.0>
-2.70686

>  <SCORE.INTRA.norm>
0.00303712

>  <SCORE.RESTR>
0.773144

>  <SCORE.RESTR.CAVITY>
0.773144

>  <SCORE.RESTR.norm>
0.028635

>  <SCORE.SYSTEM>
0

>  <SCORE.SYSTEM.CONST>
0

>  <SCORE.SYSTEM.DIHEDRAL>
0

>  <SCORE.SYSTEM.SOLV>
0

>  <SCORE.SYSTEM.norm>
0

>  <SCORE.heavy>
27

>  <SCORE.norm>
-0.314887

>  <RMSD>
5.588

$$$$
ligand
 OpenBabel11021811473D
libRbt.so/2013.1/901 2013/11/27
 27 29  0  0  0  0  0  0  0  0999 V2000
   50.8155   53.4039   26.2456 N   0  0  0  0  0  0  0  0  0  0  0  0
   50.5290   54.1552   27.4656 C   0  0  2  0  0  0  0  0  0  0  0  0
   51.1502   55.5531   27.4959 C   0  0  0  0  0  0  0  0  0  0  0  0
   50.5055   56.4541   27.9195 O   0  0  0  0  0  0  0  0  0  0  0  0
   50.7548   53.3680   28.7735 C   0  0  0  0  0  0  0  0  0  0  0  0
   50.4537   54.0501   30.1370 C   0  0  0  0  0  0  0  0  0  0  0  0
   48.9545   54.3060   30.4458 C   0  0  2  0  0  0  0  0  0  0  0  0
   48.2071   54.7836   29.2825 N   0  0  0  0  0  0  0  0  0  0  0  0
   48.7576   55.1993   31.7093 C   0  0  0  0  0  0  0  0  0  0  0  0
   47.3034   55.6249   32.1051 C   0  0  1  0  0  0  0  0  0  0  0  0
   46.4514   54.6722   32.8078 O   0  0  0  0  0  0  0  0  0  0  0  0
   47.1533   56.9471   32.9083 C   0  0  1  0  0  0  0  0  0  0  0  0
   47.4931   58.1734   32.2481 O   0  0  0  0  0  0  0  0  0  0  0  0
   45.7786   56.8290   33.6365 C   0  0  1  0  0  0  0  0  0  0  0  0
   44.7265   57.6564   33.2013 O   0  0  0  0  0  0  0  0  0  0  0  0
   45.5545   55.3145   33.6914 C   0  0  2  0  0  0  0  0  0  0  0  0
   52.5551   55.6630   27.4930 O   0  0  0  0  0  0  0  0  0  0  0  0
   48.9065   54.0155   37.7613 N   0  0  0  0  0  0  0  0  0  0  0  0
   49.2491   54.5474   36.5129 C   0  0  0  0  0  0  0  0  0  0  0  0
   48.2073   54.8377   35.5304 N   0  0  0  0  0  0  0  0  0  0  0  0
   46.8937   54.5919   35.8291 C   0  0  0  0  0  0  0  0  0  0  0  0
   46.5576   54.0547   37.0871 C   0  0  0  0  0  0  0  0  0  0  0  0
   47.5966   53.7649   38.0655 C   0  0  0  0  0  0  0  0  0  0  0  0
   47.2493   53.2077   39.3733 N   0  0  0  0  0  0  0  0  0  0  0  0
   45.1246   53.8961   37.1348 N   0  0  0  0  0  0  0  0  0  0  0  0
   44.6006   54.3384   35.8974 C   0  0  0  0  0  0  0  0  0  0  0  0
   45.6800   54.7748   35.0762 N   0  0  0  0  0  0  0  0  0  0  0  0
  2  1  1  6  0  0  0
  2  3  1  0  0  0  0
  2  5  1  0  0  0  0
  3  4  1  0  0  0  0
  3 17  1  0  0  0  0
  5  6  1  0  0  0  0
  7  6  1  6  0  0  0
  7  8  1  0  0  0  0
  7  9  1  0  0  0  0
 10  9  1  1  0  0  0
 10 11  1  0  0  0  0
 10 12  1  0  0  0  0
 11 16  1  0  0  0  0
 12 13  1  6  0  0  0
 12 14  1  0  0  0  0
 14 15  1  6  0  0  0
 14 16  1  0  0  0  0
 16 27  1  1  0  0  0
 18 19  2  0  0  0  0
 18 23  1  0  0  0  0
 19 20  1  0  0  0  0
 20 21  2  0  0  0  0
 21 22  1  0  0  0  0
 21 27  1  0  0  0  0
 22 23  2  0  0  0  0
 22 25  1  0  0  0  0
 23 24  1  0  0  0  0
 25 26  2  0  0  0  0
 26 27  1  0  0  0  0
M  END
>  <CHROM.1>
138.48748918,-178.65380644,69.85521447,-41.19607245,176.26676560,79.29386639
49.39784280,48.08152421,55.01992535,32.68025723,-1.03704844,-0.58429719,1.92971892

>  <Name>
ligand

>  <RI>
0

>  <Rbt.Current_Directory>
/home/itssahil/PROJECTS/Mol_Feturizer/New_Systems/rnas/3GX2

>  <Rbt.Executable>
rbdock ($Id: //depot/dev/client3/rdock/2013.1/src/exe/rbdock.cxx#4 $)

>  <Rbt.Library>
libRbt.so (2013.1, Build901 2013/11/27)

>  <Rbt.Parameter_File>
/export/apps/rDock/src/rDock_2013.1_src/data/scripts/dock_solv.prm

>  <Rbt.Receptor>
prm/pocket_docking_7.prm

>  <SCORE>
-13.1389

>  <SCORE.INTER>
-11.5303

>  <SCORE.INTER.CONST>
1

>  <SCORE.INTER.POLAR>
0

>  <SCORE.INTER.ROT>
7

>  <SCORE.INTER.SOLV>
10.564

>  <SCORE.INTER.VDW>
-19.4748

>  <SCORE.INTER.norm>
-0.427046

>  <SCORE.INTRA>
-1.61285

>  <SCORE.INTRA.DIHEDRAL>
-6.10543

>  <SCORE.INTRA.DIHEDRAL.0>
13.9704

>  <SCORE.INTRA.POLAR>
0

>  <SCORE.INTRA.POLAR.0>
0

>  <SCORE.INTRA.REPUL>
0

>  <SCORE.INTRA.REPUL.0>
0

>  <SCORE.INTRA.SOLV>
3.58374

>  <SCORE.INTRA.SOLV.lig_0>
-70.9758

>  <SCORE.INTRA.VDW>
-0.351999

>  <SCORE.INTRA.VDW.0>
-2.70686

>  <SCORE.INTRA.norm>
-0.0597351

>  <SCORE.RESTR>
0.00420674

>  <SCORE.RESTR.CAVITY>
0.00420674

>  <SCORE.RESTR.norm>
0.000155805

>  <SCORE.SYSTEM>
0

>  <SCORE.SYSTEM.CONST>
0

>  <SCORE.SYSTEM.DIHEDRAL>
0

>  <SCORE.SYSTEM.SOLV>
0

>  <SCORE.SYSTEM.norm>
0

>  <SCORE.heavy>
27

>  <SCORE.norm>
-0.486626

>  <RMSD>
5.589

$$$$
ligand
 OpenBabel11021811473D
libRbt.so/2013.1/901 2013/11/27
 27 29  0  0  0  0  0  0  0  0999 V2000
   47.0156   61.3491   31.3831 N   0  0  0  0  0  0  0  0  0  0  0  0
   47.6709   60.0575   31.5764 C   0  0  2  0  0  0  0  0  0  0  0  0
   46.7018   58.8784   31.6859 C   0  0  0  0  0  0  0  0  0  0  0  0
   45.8975   58.8811   32.5577 O   0  0  0  0  0  0  0  0  0  0  0  0
   48.7589   60.0457   32.6706 C   0  0  0  0  0  0  0  0  0  0  0  0
   49.9499   59.0544   32.5527 C   0  0  0  0  0  0  0  0  0  0  0  0
   49.5835   57.5485   32.6333 C   0  0  2  0  0  0  0  0  0  0  0  0
   48.8384   57.0805   31.4647 N   0  0  0  0  0  0  0  0  0  0  0  0
   48.8970   57.1810   33.9849 C   0  0  0  0  0  0  0  0  0  0  0  0
   48.3237   55.7347   34.1636 C   0  0  1  0  0  0  0  0  0  0  0  0
   47.2988   55.2585   33.2416 O   0  0  0  0  0  0  0  0  0  0  0  0
   49.3555   54.5743   34.2315 C   0  0  1  0  0  0  0  0  0  0  0  0
   50.2355   54.5266   35.3622 O   0  0  0  0  0  0  0  0  0  0  0  0
   48.5578   53.2944   33.8320 C   0  0  1  0  0  0  0  0  0  0  0  0
   48.2937   52.3405   34.8326 O   0  0  0  0  0  0  0  0  0  0  0  0
   47.3865   53.8644   33.0257 C   0  0  2  0  0  0  0  0  0  0  0  0
   46.4570   58.1023   30.5356 O   0  0  0  0  0  0  0  0  0  0  0  0
   50.6979   53.0561   28.7986 N   0  0  0  0  0  0  0  0  0  0  0  0
   51.0583   53.3587   30.1167 C   0  0  0  0  0  0  0  0  0  0  0  0
   50.0252   53.5451   31.1331 N   0  0  0  0  0  0  0  0  0  0  0  0
   48.7029   53.4225   30.7992 C   0  0  0  0  0  0  0  0  0  0  0  0
   48.3488   53.1196   29.4699 C   0  0  0  0  0  0  0  0  0  0  0  0
   49.3788   52.9348   28.4573 C   0  0  0  0  0  0  0  0  0  0  0  0
   49.0130   52.6191   27.0760 N   0  0  0  0  0  0  0  0  0  0  0  0
   46.9097   53.0514   29.3972 N   0  0  0  0  0  0  0  0  0  0  0  0
   46.3997   53.3177   30.6897 C   0  0  0  0  0  0  0  0  0  0  0  0
   47.4945   53.5479   31.5721 N   0  0  0  0  0  0  0  0  0  0  0  0
  2  1  1  1  0  0  0
  2  3  1  0  0  0  0
  2  5  1  0  0  0  0
  3  4  1  0  0  0  0
  3 17  1  0  0  0  0
  5  6  1  0  0  0  0
  7  6  1  6  0  0  0
  7  8  1  0  0  0  0
  7  9  1  0  0  0  0
 10  9  1  6  0  0  0
 10 11  1  0  0  0  0
 10 12  1  0  0  0  0
 11 16  1  0  0  0  0
 12 13  1  1  0  0  0
 12 14  1  0  0  0  0
 14 15  1  1  0  0  0
 14 16  1  0  0  0  0
 16 27  1  6  0  0  0
 18 19  2  0  0  0  0
 18 23  1  0  0  0  0
 19 20  1  0  0  0  0
 20 21  2  0  0  0  0
 21 22  1  0  0  0  0
 21 27  1  0  0  0  0
 22 23  2  0  0  0  0
 22 25  1  0  0  0  0
 23 24  1  0  0  0  0
 25 26  2  0  0  0  0
 26 27  1  0  0  0  0
M  END
>  <CHROM.1>
-59.70833933,-151.04506824,-64.68039336,69.20552170,173.42300944,-59.11077667
90.12498014,48.38973814,55.60260863,31.81760639,2.45430472,-1.33744338,1.16475488

>  <Name>
ligand

>  <RI>
0

>  <Rbt.Current_Directory>
/home/itssahil/PROJECTS/Mol_Feturizer/New_Systems/rnas/3GX2

>  <Rbt.Executable>
rbdock ($Id: //depot/dev/client3/rdock/2013.1/src/exe/rbdock.cxx#4 $)

>  <Rbt.Library>
libRbt.so (2013.1, Build901 2013/11/27)

>  <Rbt.Parameter_File>
/export/apps/rDock/src/rDock_2013.1_src/data/scripts/dock_solv.prm

>  <Rbt.Receptor>
prm/pocket_docking_3.prm

>  <SCORE>
-14.6112

>  <SCORE.INTER>
-13.5471

>  <SCORE.INTER.CONST>
1

>  <SCORE.INTER.POLAR>
0

>  <SCORE.INTER.ROT>
7

>  <SCORE.INTER.SOLV>
16.6126

>  <SCORE.INTER.VDW>
-22.8356

>  <SCORE.INTER.norm>
-0.501744

>  <SCORE.INTRA>
-1.06416

>  <SCORE.INTRA.DIHEDRAL>
-6.73277

>  <SCORE.INTRA.DIHEDRAL.0>
13.9704

>  <SCORE.INTRA.POLAR>
0

>  <SCORE.INTRA.POLAR.0>
0

>  <SCORE.INTRA.REPUL>
0

>  <SCORE.INTRA.REPUL.0>
0

>  <SCORE.INTRA.SOLV>
6.31169

>  <SCORE.INTRA.SOLV.lig_0>
-70.9758

>  <SCORE.INTRA.VDW>
-0.853625

>  <SCORE.INTRA.VDW.0>
-2.70686

>  <SCORE.INTRA.norm>
-0.0394135

>  <SCORE.RESTR>
0

>  <SCORE.RESTR.CAVITY>
0

>  <SCORE.RESTR.norm>
0

>  <SCORE.SYSTEM>
0

>  <SCORE.SYSTEM.CONST>
0

>  <SCORE.SYSTEM.DIHEDRAL>
0

>  <SCORE.SYSTEM.SOLV>
0

>  <SCORE.SYSTEM.norm>
0

>  <SCORE.heavy>
27

>  <SCORE.norm>
-0.541157

>  <RMSD>
5.615

$$$$
ligand
 OpenBabel11021811473D
libRbt.so/2013.1/901 2013/11/27
 27 29  0  0  0  0  0  0  0  0999 V2000
   47.0344   58.2631   28.4749 N   0  0  0  0  0  0  0  0  0  0  0  0
   48.4382   58.0836   28.8385 C   0  0  2  0  0  0  0  0  0  0  0  0
   49.0187   56.7286   28.4284 C   0  0  0  0  0  0  0  0  0  0  0  0
   50.0938   56.4251   28.8271 O   0  0  0  0  0  0  0  0  0  0  0  0
   48.7801   58.4693   30.2930 C   0  0  0  0  0  0  0  0  0  0  0  0
   47.9495   57.8644   31.4589 C   0  0  0  0  0  0  0  0  0  0  0  0
   48.3289   58.3548   32.8816 C   0  0  2  0  0  0  0  0  0  0  0  0
   48.2654   59.8099   33.0180 N   0  0  0  0  0  0  0  0  0  0  0  0
   49.6818   57.7521   33.3709 C   0  0  0  0  0  0  0  0  0  0  0  0
   49.7320   56.2320   33.7439 C   0  0  1  0  0  0  0  0  0  0  0  0
   49.1710   55.7945   35.0170 O   0  0  0  0  0  0  0  0  0  0  0  0
   49.1551   55.2342   32.7010 C   0  0  1  0  0  0  0  0  0  0  0  0
   49.8413   55.1034   31.4491 O   0  0  0  0  0  0  0  0  0  0  0  0
   48.8030   53.9506   33.5150 C   0  0  1  0  0  0  0  0  0  0  0  0
   49.5911   52.8022   33.3125 O   0  0  0  0  0  0  0  0  0  0  0  0
   48.6333   54.4896   34.9389 C   0  0  2  0  0  0  0  0  0  0  0  0
   48.1297   55.7122   28.0255 O   0  0  0  0  0  0  0  0  0  0  0  0
   45.1659   53.2900   38.9421 N   0  0  0  0  0  0  0  0  0  0  0  0
   46.5579   53.1439   38.9491 C   0  0  0  0  0  0  0  0  0  0  0  0
   47.3388   53.5203   37.7728 N   0  0  0  0  0  0  0  0  0  0  0  0
   46.7114   54.0181   36.6622 C   0  0  0  0  0  0  0  0  0  0  0  0
   45.3100   54.1602   36.6628 C   0  0  0  0  0  0  0  0  0  0  0  0
   44.5323   53.7842   37.8351 C   0  0  0  0  0  0  0  0  0  0  0  0
   43.0764   53.9320   37.8380 N   0  0  0  0  0  0  0  0  0  0  0  0
   44.9167   54.6982   35.3834 N   0  0  0  0  0  0  0  0  0  0  0  0
   46.0891   54.8766   34.6120 C   0  0  0  0  0  0  0  0  0  0  0  0
   47.2109   54.4630   35.3870 N   0  0  0  0  0  0  0  0  0  0  0  0
  2  1  1  1  0  0  0
  2  3  1  0  0  0  0
  2  5  1  0  0  0  0
  3  4  1  0  0  0  0
  3 17  1  0  0  0  0
  5  6  1  0  0  0  0
  7  6  1  6  0  0  0
  7  8  1  0  0  0  0
  7  9  1  0  0  0  0
 10  9  1  6  0  0  0
 10 11  1  0  0  0  0
 10 12  1  0  0  0  0
 11 16  1  0  0  0  0
 12 13  1  6  0  0  0
 12 14  1  0  0  0  0
 14 15  1  1  0  0  0
 14 16  1  0  0  0  0
 16 27  1  6  0  0  0
 18 19  2  0  0  0  0
 18 23  1  0  0  0  0
 19 20  1  0  0  0  0
 20 21  2  0  0  0  0
 21 22  1  0  0  0  0
 21 27  1  0  0  0  0
 22 23  2  0  0  0  0
 22 25  1  0  0  0  0
 23 24  1  0  0  0  0
 25 26  2  0  0  0  0
 26 27  1  0  0  0  0
M  END
>  <CHROM.1>
-170.60989025,52.33628652,-177.60345098,56.08679235,-71.29663198,-76.71585607
-101.61640361,47.76006841,55.61237405,33.51876069,1.13884039,0.61950582,-0.88554391

>  <Name>
ligand

>  <RI>
0

>  <Rbt.Current_Directory>
/home/itssahil/PROJECTS/Mol_Feturizer/New_Systems/rnas/3GX2

>  <Rbt.Executable>
rbdock ($Id: //depot/dev/client3/rdock/2013.1/src/exe/rbdock.cxx#4 $)

>  <Rbt.Library>
libRbt.so (2013.1, Build901 2013/11/27)

>  <Rbt.Parameter_File>
/export/apps/rDock/src/rDock_2013.1_src/data/scripts/dock_solv.prm

>  <Rbt.Receptor>
prm/pocket_docking_6.prm

>  <SCORE>
-12.5417

>  <SCORE.INTER>
-9.52116

>  <SCORE.INTER.CONST>
1

>  <SCORE.INTER.POLAR>
0

>  <SCORE.INTER.ROT>
7

>  <SCORE.INTER.SOLV>
18.6384

>  <SCORE.INTER.VDW>
-20.8269

>  <SCORE.INTER.norm>
-0.352636

>  <SCORE.INTRA>
-3.0205

>  <SCORE.INTRA.DIHEDRAL>
-7.83122

>  <SCORE.INTRA.DIHEDRAL.0>
13.9704

>  <SCORE.INTRA.POLAR>
0

>  <SCORE.INTRA.POLAR.0>
0

>  <SCORE.INTRA.REPUL>
0

>  <SCORE.INTRA.REPUL.0>
0

>  <SCORE.INTRA.SOLV>
1.37344

>  <SCORE.INTRA.SOLV.lig_0>
-70.9758

>  <SCORE.INTRA.VDW>
0.208396

>  <SCORE.INTRA.VDW.0>
-2.70686

>  <SCORE.INTRA.norm>
-0.11187

>  <SCORE.RESTR>
0

>  <SCORE.RESTR.CAVITY>
0

>  <SCORE.RESTR.norm>
0

>  <SCORE.SYSTEM>
0

>  <SCORE.SYSTEM.CONST>
0

>  <SCORE.SYSTEM.DIHEDRAL>
0

>  <SCORE.SYSTEM.SOLV>
0

>  <SCORE.SYSTEM.norm>
0

>  <SCORE.heavy>
27

>  <SCORE.norm>
-0.464506

>  <RMSD>
5.616

$$$$
ligand
 OpenBabel11021811483D
libRbt.so/2013.1/901 2013/11/27
 27 29  0  0  0  0  0  0  0  0999 V2000
   42.7163   55.5887   30.5621 N   0  0  0  0  0  0  0  0  0  0  0  0
   43.7388   54.5613   30.3781 C   0  0  2  0  0  0  0  0  0  0  0  0
   44.8643   54.9674   29.4244 C   0  0  0  0  0  0  0  0  0  0  0  0
   44.6760   55.8623   28.6690 O   0  0  0  0  0  0  0  0  0  0  0  0
   43.1871   53.1491   30.0908 C   0  0  0  0  0  0  0  0  0  0  0  0
   42.2449   52.4724   31.1250 C   0  0  0  0  0  0  0  0  0  0  0  0
   42.8709   52.1761   32.5138 C   0  0  2  0  0  0  0  0  0  0  0  0
   41.9916   51.3893   33.3786 N   0  0  0  0  0  0  0  0  0  0  0  0
   43.4130   53.4663   33.2028 C   0  0  0  0  0  0  0  0  0  0  0  0
   44.6680   53.3470   34.1320 C   0  0  1  0  0  0  0  0  0  0  0  0
   45.8959   52.7707   33.5960 O   0  0  0  0  0  0  0  0  0  0  0  0
   45.1300   54.6420   34.8568 C   0  0  1  0  0  0  0  0  0  0  0  0
   44.2605   55.1989   35.8512 O   0  0  0  0  0  0  0  0  0  0  0  0
   46.6315   54.4015   35.2056 C   0  0  1  0  0  0  0  0  0  0  0  0
   46.9751   54.2186   36.5582 O   0  0  0  0  0  0  0  0  0  0  0  0
   47.0487   53.3370   34.1860 C   0  0  2  0  0  0  0  0  0  0  0  0
   46.1894   54.6358   29.7707 O   0  0  0  0  0  0  0  0  0  0  0  0
   48.9201   52.9031   29.1069 N   0  0  0  0  0  0  0  0  0  0  0  0
   47.9532   52.1050   29.7291 C   0  0  0  0  0  0  0  0  0  0  0  0
   47.5688   52.3676   31.1141 N   0  0  0  0  0  0  0  0  0  0  0  0
   48.1519   53.3956   31.8058 C   0  0  0  0  0  0  0  0  0  0  0  0
   49.1255   54.1928   31.1727 C   0  0  0  0  0  0  0  0  0  0  0  0
   49.5087   53.9300   29.7927 C   0  0  0  0  0  0  0  0  0  0  0  0
   50.5192   54.7577   29.1330 N   0  0  0  0  0  0  0  0  0  0  0  0
   49.5694   55.1877   32.1182 N   0  0  0  0  0  0  0  0  0  0  0  0
   48.8593   54.9831   33.3246 C   0  0  0  0  0  0  0  0  0  0  0  0
   47.9753   53.8793   33.1505 N   0  0  0  0  0  0  0  0  0  0  0  0
  2  1  1  6  0  0  0
  2  3  1  0  0  0  0
  2  5  1  0  0  0  0
  3  4  1  0  0  0  0
  3 17  1  0  0  0  0
  5  6  1  0  0  0  0
  7  6  1  6  0  0  0
  7  8  1  0  0  0  0
  7  9  1  0  0  0  0
 10  9  1  6  0  0  0
 10 11  1  0  0  0  0
 10 12  1  0  0  0  0
 11 16  1  0  0  0  0
 12 13  1  1  0  0  0
 12 14  1  0  0  0  0
 14 15  1  1  0  0  0
 14 16  1  0  0  0  0
 16 27  1  6  0  0  0
 18 19  2  0  0  0  0
 18 23  1  0  0  0  0
 19 20  1  0  0  0  0
 20 21  2  0  0  0  0
 21 22  1  0  0  0  0
 21 27  1  0  0  0  0
 22 23  2  0  0  0  0
 22 25  1  0  0  0  0
 23 24  1  0  0  0  0
 25 26  2  0  0  0  0
 26 27  1  0  0  0  0
M  END
>  <CHROM.1>
-19.18983338,-59.09344217,-63.55550070,-172.65718533,-147.80175000,56.01734800
-30.22114186,46.03449531,53.86808410,32.02646422,2.65629831,0.09988637,1.59494908

>  <Name>
ligand

>  <RI>
0

>  <Rbt.Current_Directory>
/home/itssahil/PROJECTS/Mol_Feturizer/New_Systems/rnas/3GX2

>  <Rbt.Executable>
rbdock ($Id: //depot/dev/client3/rdock/2013.1/src/exe/rbdock.cxx#4 $)

>  <Rbt.Library>
libRbt.so (2013.1, Build901 2013/11/27)

>  <Rbt.Parameter_File>
/export/apps/rDock/src/rDock_2013.1_src/data/scripts/dock_solv.prm

>  <Rbt.Receptor>
prm/pocket_docking_8.prm

>  <SCORE>
-5.98635

>  <SCORE.INTER>
-3.3417

>  <SCORE.INTER.CONST>
1

>  <SCORE.INTER.POLAR>
0

>  <SCORE.INTER.ROT>
7

>  <SCORE.INTER.SOLV>
12.941

>  <SCORE.INTER.VDW>
-14.8081

>  <SCORE.INTER.norm>
-0.123767

>  <SCORE.INTRA>
-2.64464

>  <SCORE.INTRA.DIHEDRAL>
-6.09743

>  <SCORE.INTRA.DIHEDRAL.0>
13.9704

>  <SCORE.INTRA.POLAR>
0

>  <SCORE.INTRA.POLAR.0>
0

>  <SCORE.INTRA.REPUL>
0

>  <SCORE.INTRA.REPUL.0>
0

>  <SCORE.INTRA.SOLV>
1.71446

>  <SCORE.INTRA.SOLV.lig_0>
-70.9758

>  <SCORE.INTRA.VDW>
-0.453161

>  <SCORE.INTRA.VDW.0>
-2.70686

>  <SCORE.INTRA.norm>
-0.0979498

>  <SCORE.RESTR>
0

>  <SCORE.RESTR.CAVITY>
0

>  <SCORE.RESTR.norm>
0

>  <SCORE.SYSTEM>
0

>  <SCORE.SYSTEM.CONST>
0

>  <SCORE.SYSTEM.DIHEDRAL>
0

>  <SCORE.SYSTEM.SOLV>
0

>  <SCORE.SYSTEM.norm>
0

>  <SCORE.heavy>
27

>  <SCORE.norm>
-0.221717

>  <RMSD>
5.621

$$$$
ligand
 OpenBabel11021811473D
libRbt.so/2013.1/901 2013/11/27
 27 29  0  0  0  0  0  0  0  0999 V2000
   44.7345   53.5862   30.4705 N   0  0  0  0  0  0  0  0  0  0  0  0
   45.9786   54.3188   30.6956 C   0  0  2  0  0  0  0  0  0  0  0  0
   46.8438   54.4753   29.4433 C   0  0  0  0  0  0  0  0  0  0  0  0
   46.7539   53.6631   28.5835 O   0  0  0  0  0  0  0  0  0  0  0  0
   46.7830   53.8565   31.9286 C   0  0  0  0  0  0  0  0  0  0  0  0
   46.1115   53.8765   33.3299 C   0  0  0  0  0  0  0  0  0  0  0  0
   47.0489   53.5794   34.5305 C   0  0  2  0  0  0  0  0  0  0  0  0
   46.4324   52.7102   35.5328 N   0  0  0  0  0  0  0  0  0  0  0  0
   47.6569   54.8807   35.1390 C   0  0  0  0  0  0  0  0  0  0  0  0
   48.5897   55.7614   34.2409 C   0  0  1  0  0  0  0  0  0  0  0  0
   49.7401   55.1431   33.5916 O   0  0  0  0  0  0  0  0  0  0  0  0
   47.9051   56.5868   33.1157 C   0  0  1  0  0  0  0  0  0  0  0  0
   47.0265   57.6502   33.5060 O   0  0  0  0  0  0  0  0  0  0  0  0
   49.0319   56.8722   32.0751 C   0  0  1  0  0  0  0  0  0  0  0  0
   49.5027   58.1931   31.9557 O   0  0  0  0  0  0  0  0  0  0  0  0
   50.0380   55.7503   32.3505 C   0  0  2  0  0  0  0  0  0  0  0  0
   47.3315   55.7574   29.1209 O   0  0  0  0  0  0  0  0  0  0  0  0
   51.2751   54.7569   27.1573 N   0  0  0  0  0  0  0  0  0  0  0  0
   51.4142   55.9653   27.8495 C   0  0  0  0  0  0  0  0  0  0  0  0
   51.0270   56.0517   29.2558 N   0  0  0  0  0  0  0  0  0  0  0  0
   50.5290   54.9507   29.9000 C   0  0  0  0  0  0  0  0  0  0  0  0
   50.3905   53.7389   29.1955 C   0  0  0  0  0  0  0  0  0  0  0  0
   50.7759   53.6537   27.7938 C   0  0  0  0  0  0  0  0  0  0  0  0
   50.6336   52.3954   27.0604 N   0  0  0  0  0  0  0  0  0  0  0  0
   49.8480   52.7566   30.1020 N   0  0  0  0  0  0  0  0  0  0  0  0
   49.6584   53.3850   31.3553 C   0  0  0  0  0  0  0  0  0  0  0  0
   50.0760   54.7432   31.2510 N   0  0  0  0  0  0  0  0  0  0  0  0
  2  1  1  6  0  0  0
  2  3  1  0  0  0  0
  2  5  1  0  0  0  0
  3  4  1  0  0  0  0
  3 17  1  0  0  0  0
  5  6  1  0  0  0  0
  7  6  1  6  0  0  0
  7  8  1  0  0  0  0
  7  9  1  0  0  0  0
 10  9  1  6  0  0  0
 10 11  1  0  0  0  0
 10 12  1  0  0  0  0
 11 16  1  0  0  0  0
 12 13  1  1  0  0  0
 12 14  1  0  0  0  0
 14 15  1  1  0  0  0
 14 16  1  0  0  0  0
 16 27  1  6  0  0  0
 18 19  2  0  0  0  0
 18 23  1  0  0  0  0
 19 20  1  0  0  0  0
 20 21  2  0  0  0  0
 21 22  1  0  0  0  0
 21 27  1  0  0  0  0
 22 23  2  0  0  0  0
 22 25  1  0  0  0  0
 23 24  1  0  0  0  0
 25 26  2  0  0  0  0
 26 27  1  0  0  0  0
M  END
>  <CHROM.1>
-26.86862511,-57.33140408,-172.06743284,-138.68364789,-62.80222314,-53.89174454
-170.46839273,48.58102569,54.81630802,31.16574274,2.18853154,0.58034244,1.09863735

>  <Name>
ligand

>  <RI>
0

>  <Rbt.Current_Directory>
/home/itssahil/PROJECTS/Mol_Feturizer/New_Systems/rnas/3GX2

>  <Rbt.Executable>
rbdock ($Id: //depot/dev/client3/rdock/2013.1/src/exe/rbdock.cxx#4 $)

>  <Rbt.Library>
libRbt.so (2013.1, Build901 2013/11/27)

>  <Rbt.Parameter_File>
/export/apps/rDock/src/rDock_2013.1_src/data/scripts/dock_solv.prm

>  <Rbt.Receptor>
prm/pocket_docking_6.prm

>  <SCORE>
-10.3885

>  <SCORE.INTER>
-5.64475

>  <SCORE.INTER.CONST>
1

>  <SCORE.INTER.POLAR>
0

>  <SCORE.INTER.ROT>
7

>  <SCORE.INTER.SOLV>
12.2255

>  <SCORE.INTER.VDW>
-16.105

>  <SCORE.INTER.norm>
-0.209065

>  <SCORE.INTRA>
-4.74376

>  <SCORE.INTRA.DIHEDRAL>
-4.96137

>  <SCORE.INTRA.DIHEDRAL.0>
13.9704

>  <SCORE.INTRA.POLAR>
0

>  <SCORE.INTRA.POLAR.0>
0

>  <SCORE.INTRA.REPUL>
0

>  <SCORE.INTRA.REPUL.0>
0

>  <SCORE.INTRA.SOLV>
0.517648

>  <SCORE.INTRA.SOLV.lig_0>
-70.9758

>  <SCORE.INTRA.VDW>
-2.5219

>  <SCORE.INTRA.VDW.0>
-2.70686

>  <SCORE.INTRA.norm>
-0.175695

>  <SCORE.RESTR>
0

>  <SCORE.RESTR.CAVITY>
0

>  <SCORE.RESTR.norm>
0

>  <SCORE.SYSTEM>
0

>  <SCORE.SYSTEM.CONST>
0

>  <SCORE.SYSTEM.DIHEDRAL>
0

>  <SCORE.SYSTEM.SOLV>
0

>  <SCORE.SYSTEM.norm>
0

>  <SCORE.heavy>
27

>  <SCORE.norm>
-0.38476

>  <RMSD>
5.626

$$$$
ligand
 OpenBabel11021811473D
libRbt.so/2013.1/901 2013/11/27
 27 29  0  0  0  0  0  0  0  0999 V2000
   45.5821   59.6714   32.1203 N   0  0  0  0  0  0  0  0  0  0  0  0
   45.1973   58.2651   32.0252 C   0  0  2  0  0  0  0  0  0  0  0  0
   45.8370   57.3715   33.0899 C   0  0  0  0  0  0  0  0  0  0  0  0
   45.1450   56.9038   33.9319 O   0  0  0  0  0  0  0  0  0  0  0  0
   45.2880   57.6682   30.6051 C   0  0  0  0  0  0  0  0  0  0  0  0
   46.6390   57.7225   29.8388 C   0  0  0  0  0  0  0  0  0  0  0  0
   46.6093   57.1876   28.3823 C   0  0  2  0  0  0  0  0  0  0  0  0
   46.3695   55.7463   28.3098 N   0  0  0  0  0  0  0  0  0  0  0  0
   47.8555   57.6432   27.5621 C   0  0  0  0  0  0  0  0  0  0  0  0
   49.2614   57.0831   27.9646 C   0  0  1  0  0  0  0  0  0  0  0  0
   49.6811   57.1544   29.3596 O   0  0  0  0  0  0  0  0  0  0  0  0
   49.5850   55.6248   27.5350 C   0  0  1  0  0  0  0  0  0  0  0  0
   49.7118   55.3527   26.1332 O   0  0  0  0  0  0  0  0  0  0  0  0
   50.7093   55.1522   28.5079 C   0  0  1  0  0  0  0  0  0  0  0  0
   52.0042   54.9746   27.9857 O   0  0  0  0  0  0  0  0  0  0  0  0
   50.5192   56.0737   29.7168 C   0  0  2  0  0  0  0  0  0  0  0  0
   47.0644   56.7466   32.7919 O   0  0  0  0  0  0  0  0  0  0  0  0
   49.0957   56.3660   34.9490 N   0  0  0  0  0  0  0  0  0  0  0  0
   49.5974   57.3954   34.1444 C   0  0  0  0  0  0  0  0  0  0  0  0
   49.9304   57.1346   32.7458 N   0  0  0  0  0  0  0  0  0  0  0  0
   49.7509   55.8835   32.2187 C   0  0  0  0  0  0  0  0  0  0  0  0
   49.2473   54.8527   33.0359 C   0  0  0  0  0  0  0  0  0  0  0  0
   48.9163   55.1132   34.4298 C   0  0  0  0  0  0  0  0  0  0  0  0
   48.3920   54.0438   35.2801 N   0  0  0  0  0  0  0  0  0  0  0  0
   49.1607   53.6542   32.2377 N   0  0  0  0  0  0  0  0  0  0  0  0
   49.6177   53.9691   30.9363 C   0  0  0  0  0  0  0  0  0  0  0  0
   49.9858   55.3451   30.9040 N   0  0  0  0  0  0  0  0  0  0  0  0
  2  1  1  6  0  0  0
  2  3  1  0  0  0  0
  2  5  1  0  0  0  0
  3  4  1  0  0  0  0
  3 17  1  0  0  0  0
  5  6  1  0  0  0  0
  7  6  1  1  0  0  0
  7  8  1  0  0  0  0
  7  9  1  0  0  0  0
 10  9  1  1  0  0  0
 10 11  1  0  0  0  0
 10 12  1  0  0  0  0
 11 16  1  0  0  0  0
 12 13  1  6  0  0  0
 12 14  1  0  0  0  0
 14 15  1  6  0  0  0
 14 16  1  0  0  0  0
 16 27  1  1  0  0  0
 18 19  2  0  0  0  0
 18 23  1  0  0  0  0
 19 20  1  0  0  0  0
 20 21  2  0  0  0  0
 21 22  1  0  0  0  0
 21 27  1  0  0  0  0
 22 23  2  0  0  0  0
 22 25  1  0  0  0  0
 23 24  1  0  0  0  0
 25 26  2  0  0  0  0
 26 27  1  0  0  0  0
M  END
>  <CHROM.1>
111.34887638,56.65122776,-175.90437556,-67.21265988,67.18569358,-50.20839385
-60.15285503,48.38186046,56.31419063,30.93775860,2.03988061,-0.56525411,1.70786138

>  <Name>
ligand

>  <RI>
0

>  <Rbt.Current_Directory>
/home/itssahil/PROJECTS/Mol_Feturizer/New_Systems/rnas/3GX2

>  <Rbt.Executable>
rbdock ($Id: //depot/dev/client3/rdock/2013.1/src/exe/rbdock.cxx#4 $)

>  <Rbt.Library>
libRbt.so (2013.1, Build901 2013/11/27)

>  <Rbt.Parameter_File>
/export/apps/rDock/src/rDock_2013.1_src/data/scripts/dock_solv.prm

>  <Rbt.Receptor>
prm/pocket_docking_4.prm

>  <SCORE>
-12.8111

>  <SCORE.INTER>
-9.19024

>  <SCORE.INTER.CONST>
1

>  <SCORE.INTER.POLAR>
0

>  <SCORE.INTER.ROT>
7

>  <SCORE.INTER.SOLV>
14.4053

>  <SCORE.INTER.VDW>
-19.1952

>  <SCORE.INTER.norm>
-0.340379

>  <SCORE.INTRA>
-3.62086

>  <SCORE.INTRA.DIHEDRAL>
-8.35895

>  <SCORE.INTRA.DIHEDRAL.0>
13.9704

>  <SCORE.INTRA.POLAR>
0

>  <SCORE.INTRA.POLAR.0>
0

>  <SCORE.INTRA.REPUL>
0.00628605

>  <SCORE.INTRA.REPUL.0>
0

>  <SCORE.INTRA.SOLV>
3.55854

>  <SCORE.INTRA.SOLV.lig_0>
-70.9758

>  <SCORE.INTRA.VDW>
-1.25209

>  <SCORE.INTRA.VDW.0>
-2.70686

>  <SCORE.INTRA.norm>
-0.134106

>  <SCORE.RESTR>
0

>  <SCORE.RESTR.CAVITY>
0

>  <SCORE.RESTR.norm>
0

>  <SCORE.SYSTEM>
0

>  <SCORE.SYSTEM.CONST>
0

>  <SCORE.SYSTEM.DIHEDRAL>
0

>  <SCORE.SYSTEM.SOLV>
0

>  <SCORE.SYSTEM.norm>
0

>  <SCORE.heavy>
27

>  <SCORE.norm>
-0.474485

>  <RMSD>
5.627

$$$$
ligand
 OpenBabel11021811473D
libRbt.so/2013.1/901 2013/11/27
 27 29  0  0  0  0  0  0  0  0999 V2000
   47.4305   58.7466   27.2739 N   0  0  0  0  0  0  0  0  0  0  0  0
   48.4593   57.9697   27.9616 C   0  0  2  0  0  0  0  0  0  0  0  0
   48.4097   56.4698   27.6633 C   0  0  0  0  0  0  0  0  0  0  0  0
   49.3925   55.8247   27.8207 O   0  0  0  0  0  0  0  0  0  0  0  0
   48.6004   58.2794   29.4667 C   0  0  0  0  0  0  0  0  0  0  0  0
   47.4781   57.8362   30.4461 C   0  0  0  0  0  0  0  0  0  0  0  0
   47.6218   58.3389   31.9073 C   0  0  2  0  0  0  0  0  0  0  0  0
   48.9876   58.2216   32.4181 N   0  0  0  0  0  0  0  0  0  0  0  0
   46.5568   57.7061   32.8552 C   0  0  0  0  0  0  0  0  0  0  0  0
   46.5387   56.1496   33.0264 C   0  0  1  0  0  0  0  0  0  0  0  0
   47.6893   55.4886   33.6319 O   0  0  0  0  0  0  0  0  0  0  0  0
   45.3102   55.5382   33.7563 C   0  0  1  0  0  0  0  0  0  0  0  0
   44.0335   55.6321   33.1111 O   0  0  0  0  0  0  0  0  0  0  0  0
   45.7967   54.1535   34.2855 C   0  0  1  0  0  0  0  0  0  0  0  0
   45.2785   52.9943   33.6784 O   0  0  0  0  0  0  0  0  0  0  0  0
   47.3162   54.3345   34.3576 C   0  0  2  0  0  0  0  0  0  0  0  0
   47.1584   55.8220   27.6879 O   0  0  0  0  0  0  0  0  0  0  0  0
   46.0639   53.9174   39.6250 N   0  0  0  0  0  0  0  0  0  0  0  0
   45.2036   53.7692   38.5310 C   0  0  0  0  0  0  0  0  0  0  0  0
   45.7172   53.9173   37.1711 N   0  0  0  0  0  0  0  0  0  0  0  0
   47.0410   54.1996   36.9638 C   0  0  0  0  0  0  0  0  0  0  0  0
   47.8996   54.3490   38.0704 C   0  0  0  0  0  0  0  0  0  0  0  0
   47.3869   54.2020   39.4254 C   0  0  0  0  0  0  0  0  0  0  0  0
   48.2775   54.3559   40.5762 N   0  0  0  0  0  0  0  0  0  0  0  0
   49.2214   54.6407   37.5718 N   0  0  0  0  0  0  0  0  0  0  0  0
   49.1528   54.6687   36.1590 C   0  0  0  0  0  0  0  0  0  0  0  0
   47.8115   54.3959   35.7633 N   0  0  0  0  0  0  0  0  0  0  0  0
  2  1  1  1  0  0  0
  2  3  1  0  0  0  0
  2  5  1  0  0  0  0
  3  4  1  0  0  0  0
  3 17  1  0  0  0  0
  5  6  1  0  0  0  0
  7  6  1  6  0  0  0
  7  8  1  0  0  0  0
  7  9  1  0  0  0  0
 10  9  1  1  0  0  0
 10 11  1  0  0  0  0
 10 12  1  0  0  0  0
 11 16  1  0  0  0  0
 12 13  1  6  0  0  0
 12 14  1  0  0  0  0
 14 15  1  6  0  0  0
 14 16  1  0  0  0  0
 16 27  1  1  0  0  0
 18 19  2  0  0  0  0
 18 23  1  0  0  0  0
 19 20  1  0  0  0  0
 20 21  2  0  0  0  0
 21 22  1  0  0  0  0
 21 27  1  0  0  0  0
 22 23  2  0  0  0  0
 22 25  1  0  0  0  0
 23 24  1  0  0  0  0
 25 26  2  0  0  0  0
 26 27  1  0  0  0  0
M  END
>  <CHROM.1>
157.40047455,70.44573739,-172.86402346,-43.66827505,60.51737636,64.13056645
128.41446216,47.23983176,55.64220592,33.60474408,-1.46469485,0.47658710,1.84513356

>  <Name>
ligand

>  <RI>
0

>  <Rbt.Current_Directory>
/home/itssahil/PROJECTS/Mol_Feturizer/New_Systems/rnas/3GX2

>  <Rbt.Executable>
rbdock ($Id: //depot/dev/client3/rdock/2013.1/src/exe/rbdock.cxx#4 $)

>  <Rbt.Library>
libRbt.so (2013.1, Build901 2013/11/27)

>  <Rbt.Parameter_File>
/export/apps/rDock/src/rDock_2013.1_src/data/scripts/dock_solv.prm

>  <Rbt.Receptor>
prm/pocket_docking_6.prm

>  <SCORE>
-12.2133

>  <SCORE.INTER>
-9.77603

>  <SCORE.INTER.CONST>
1

>  <SCORE.INTER.POLAR>
0

>  <SCORE.INTER.ROT>
7

>  <SCORE.INTER.SOLV>
15.586

>  <SCORE.INTER.VDW>
-19.9794

>  <SCORE.INTER.norm>
-0.362075

>  <SCORE.INTRA>
-2.43723

>  <SCORE.INTRA.DIHEDRAL>
-7.68897

>  <SCORE.INTRA.DIHEDRAL.0>
13.9704

>  <SCORE.INTRA.POLAR>
0

>  <SCORE.INTRA.POLAR.0>
0

>  <SCORE.INTRA.REPUL>
0

>  <SCORE.INTRA.REPUL.0>
0

>  <SCORE.INTRA.SOLV>
1.52627

>  <SCORE.INTRA.SOLV.lig_0>
-70.9758

>  <SCORE.INTRA.VDW>
0.644121

>  <SCORE.INTRA.VDW.0>
-2.70686

>  <SCORE.INTRA.norm>
-0.0902676

>  <SCORE.RESTR>
0

>  <SCORE.RESTR.CAVITY>
0

>  <SCORE.RESTR.norm>
0

>  <SCORE.SYSTEM>
0

>  <SCORE.SYSTEM.CONST>
0

>  <SCORE.SYSTEM.DIHEDRAL>
0

>  <SCORE.SYSTEM.SOLV>
0

>  <SCORE.SYSTEM.norm>
0

>  <SCORE.heavy>
27

>  <SCORE.norm>
-0.452343

>  <RMSD>
5.653

$$$$
ligand
 OpenBabel11021811473D
libRbt.so/2013.1/901 2013/11/27
 27 29  0  0  0  0  0  0  0  0999 V2000
   48.6336   59.3530   30.2478 N   0  0  0  0  0  0  0  0  0  0  0  0
   47.9173   59.5295   31.5090 C   0  0  2  0  0  0  0  0  0  0  0  0
   46.7060   60.4593   31.4118 C   0  0  0  0  0  0  0  0  0  0  0  0
   45.6576   60.0727   31.8095 O   0  0  0  0  0  0  0  0  0  0  0  0
   48.8185   59.8404   32.7224 C   0  0  0  0  0  0  0  0  0  0  0  0
   50.0580   58.9457   33.0022 C   0  0  0  0  0  0  0  0  0  0  0  0
   49.8110   57.4147   32.9430 C   0  0  2  0  0  0  0  0  0  0  0  0
   49.4998   56.9400   31.5947 N   0  0  0  0  0  0  0  0  0  0  0  0
   48.7776   56.9431   34.0121 C   0  0  0  0  0  0  0  0  0  0  0  0
   48.3192   55.4457   33.9997 C   0  0  1  0  0  0  0  0  0  0  0  0
   47.7488   54.8880   32.7787 O   0  0  0  0  0  0  0  0  0  0  0  0
   49.3619   54.3889   34.4601 C   0  0  1  0  0  0  0  0  0  0  0  0
   49.7723   54.4079   35.8335 O   0  0  0  0  0  0  0  0  0  0  0  0
   48.8893   53.0448   33.8243 C   0  0  1  0  0  0  0  0  0  0  0  0
   48.3726   52.0541   34.6801 O   0  0  0  0  0  0  0  0  0  0  0  0
   48.0414   53.5124   32.6372 C   0  0  2  0  0  0  0  0  0  0  0  0
   46.9313   61.8475   31.3238 O   0  0  0  0  0  0  0  0  0  0  0  0
   47.3528   52.2691   27.3963 N   0  0  0  0  0  0  0  0  0  0  0  0
   46.3595   52.4604   28.3636 C   0  0  0  0  0  0  0  0  0  0  0  0
   46.7304   52.7922   29.7374 N   0  0  0  0  0  0  0  0  0  0  0  0
   48.0498   52.9184   30.0813 C   0  0  0  0  0  0  0  0  0  0  0  0
   49.0433   52.7224   29.1022 C   0  0  0  0  0  0  0  0  0  0  0  0
   48.6729   52.3910   27.7334 C   0  0  0  0  0  0  0  0  0  0  0  0
   49.7035   52.1878   26.7146 N   0  0  0  0  0  0  0  0  0  0  0  0
   50.3289   52.9119   29.7284 N   0  0  0  0  0  0  0  0  0  0  0  0
   50.1035   53.2204   31.0906 C   0  0  0  0  0  0  0  0  0  0  0  0
   48.6987   53.2312   31.3282 N   0  0  0  0  0  0  0  0  0  0  0  0
  2  1  1  6  0  0  0
  2  3  1  0  0  0  0
  2  5  1  0  0  0  0
  3  4  1  0  0  0  0
  3 17  1  0  0  0  0
  5  6  1  0  0  0  0
  7  6  1  6  0  0  0
  7  8  1  0  0  0  0
  7  9  1  0  0  0  0
 10  9  1  6  0  0  0
 10 11  1  0  0  0  0
 10 12  1  0  0  0  0
 11 16  1  0  0  0  0
 12 13  1  1  0  0  0
 12 14  1  0  0  0  0
 14 15  1  1  0  0  0
 14 16  1  0  0  0  0
 16 27  1  6  0  0  0
 18 19  2  0  0  0  0
 18 23  1  0  0  0  0
 19 20  1  0  0  0  0
 20 21  2  0  0  0  0
 21 22  1  0  0  0  0
 21 27  1  0  0  0  0
 22 23  2  0  0  0  0
 22 25  1  0  0  0  0
 23 24  1  0  0  0  0
 25 26  2  0  0  0  0
 26 27  1  0  0  0  0
M  END
>  <CHROM.1>
127.52888499,-49.90783611,-46.99637637,67.48678915,174.52962313,-55.78923358
-88.95121309,48.43818211,55.50444625,31.56426751,1.90032214,-1.31839689,0.65543009

>  <Name>
ligand

>  <RI>
0

>  <Rbt.Current_Directory>
/home/itssahil/PROJECTS/Mol_Feturizer/New_Systems/rnas/3GX2

>  <Rbt.Executable>
rbdock ($Id: //depot/dev/client3/rdock/2013.1/src/exe/rbdock.cxx#4 $)

>  <Rbt.Library>
libRbt.so (2013.1, Build901 2013/11/27)

>  <Rbt.Parameter_File>
/export/apps/rDock/src/rDock_2013.1_src/data/scripts/dock_solv.prm

>  <Rbt.Receptor>
prm/pocket_docking_3.prm

>  <SCORE>
-16.6996

>  <SCORE.INTER>
-15.9869

>  <SCORE.INTER.CONST>
1

>  <SCORE.INTER.POLAR>
0

>  <SCORE.INTER.ROT>
7

>  <SCORE.INTER.SOLV>
19.4963

>  <SCORE.INTER.VDW>
-25.4233

>  <SCORE.INTER.norm>
-0.592106

>  <SCORE.INTRA>
-0.718006

>  <SCORE.INTRA.DIHEDRAL>
-7.78441

>  <SCORE.INTRA.DIHEDRAL.0>
13.9704

>  <SCORE.INTRA.POLAR>
0

>  <SCORE.INTRA.POLAR.0>
0

>  <SCORE.INTRA.REPUL>
0

>  <SCORE.INTRA.REPUL.0>
0

>  <SCORE.INTRA.SOLV>
6.11559

>  <SCORE.INTRA.SOLV.lig_0>
-70.9758

>  <SCORE.INTRA.VDW>
0.116404

>  <SCORE.INTRA.VDW.0>
-2.70686

>  <SCORE.INTRA.norm>
-0.0265928

>  <SCORE.RESTR>
0.00521836

>  <SCORE.RESTR.CAVITY>
0.00521836

>  <SCORE.RESTR.norm>
0.000193273

>  <SCORE.SYSTEM>
0

>  <SCORE.SYSTEM.CONST>
0

>  <SCORE.SYSTEM.DIHEDRAL>
0

>  <SCORE.SYSTEM.SOLV>
0

>  <SCORE.SYSTEM.norm>
0

>  <SCORE.heavy>
27

>  <SCORE.norm>
-0.618506

>  <RMSD>
5.675

$$$$
ligand
 OpenBabel11021811483D
libRbt.so/2013.1/901 2013/11/27
 27 29  0  0  0  0  0  0  0  0999 V2000
   43.4741   54.5507   31.3146 N   0  0  0  0  0  0  0  0  0  0  0  0
   43.3061   55.9984   31.2101 C   0  0  2  0  0  0  0  0  0  0  0  0
   43.2221   56.5127   29.7715 C   0  0  0  0  0  0  0  0  0  0  0  0
   42.1633   56.8290   29.3404 O   0  0  0  0  0  0  0  0  0  0  0  0
   44.2705   56.8227   32.0885 C   0  0  0  0  0  0  0  0  0  0  0  0
   45.8030   56.6028   31.9539 C   0  0  0  0  0  0  0  0  0  0  0  0
   46.6977   57.5892   32.7507 C   0  0  2  0  0  0  0  0  0  0  0  0
   46.3507   58.9905   32.5145 N   0  0  0  0  0  0  0  0  0  0  0  0
   48.2171   57.2935   32.5577 C   0  0  0  0  0  0  0  0  0  0  0  0
   48.8042   55.9722   33.1593 C   0  0  1  0  0  0  0  0  0  0  0  0
   48.8155   55.7951   34.6070 O   0  0  0  0  0  0  0  0  0  0  0  0
   48.2331   54.6358   32.6082 C   0  0  1  0  0  0  0  0  0  0  0  0
   48.5008   54.3079   31.2386 O   0  0  0  0  0  0  0  0  0  0  0  0
   48.5269   53.5780   33.7167 C   0  0  1  0  0  0  0  0  0  0  0  0
   49.4999   52.5959   33.4524 O   0  0  0  0  0  0  0  0  0  0  0  0
   48.6677   54.4387   34.9761 C   0  0  2  0  0  0  0  0  0  0  0  0
   44.3850   57.0460   29.1809 O   0  0  0  0  0  0  0  0  0  0  0  0
   43.2731   54.2373   35.5632 N   0  0  0  0  0  0  0  0  0  0  0  0
   43.9936   54.4525   34.3828 C   0  0  0  0  0  0  0  0  0  0  0  0
   45.4543   54.4756   34.4112 N   0  0  0  0  0  0  0  0  0  0  0  0
   46.1215   54.2851   35.5917 C   0  0  0  0  0  0  0  0  0  0  0  0
   45.3887   54.0710   36.7755 C   0  0  0  0  0  0  0  0  0  0  0  0
   43.9330   54.0489   36.7466 C   0  0  0  0  0  0  0  0  0  0  0  0
   43.1700   53.8257   37.9751 N   0  0  0  0  0  0  0  0  0  0  0  0
   46.3288   53.9039   37.8568 N   0  0  0  0  0  0  0  0  0  0  0  0
   47.6314   54.0213   37.3174 C   0  0  0  0  0  0  0  0  0  0  0  0
   47.5241   54.2556   35.9161 N   0  0  0  0  0  0  0  0  0  0  0  0
  2  1  1  6  0  0  0
  2  3  1  0  0  0  0
  2  5  1  0  0  0  0
  3  4  1  0  0  0  0
  3 17  1  0  0  0  0
  5  6  1  0  0  0  0
  7  6  1  6  0  0  0
  7  8  1  0  0  0  0
  7  9  1  0  0  0  0
 10  9  1  1  0  0  0
 10 11  1  0  0  0  0
 10 12  1  0  0  0  0
 11 16  1  0  0  0  0
 12 13  1  6  0  0  0
 12 14  1  0  0  0  0
 14 15  1  6  0  0  0
 14 16  1  0  0  0  0
 16 27  1  1  0  0  0
 18 19  2  0  0  0  0
 18 23  1  0  0  0  0
 19 20  1  0  0  0  0
 20 21  2  0  0  0  0
 21 22  1  0  0  0  0
 21 27  1  0  0  0  0
 22 23  2  0  0  0  0
 22 25  1  0  0  0  0
 23 24  1  0  0  0  0
 25 26  2  0  0  0  0
 26 27  1  0  0  0  0
M  END
>  <CHROM.1>
104.27043082,55.16500589,173.04237051,-50.79822627,-68.12244151,-64.97119276
74.79908936,46.01010856,55.25246189,33.56193569,1.98145932,0.05594943,-1.15114276

>  <Name>
ligand

>  <RI>
0

>  <Rbt.Current_Directory>
/home/itssahil/PROJECTS/Mol_Feturizer/New_Systems/rnas/3GX2

>  <Rbt.Executable>
rbdock ($Id: //depot/dev/client3/rdock/2013.1/src/exe/rbdock.cxx#4 $)

>  <Rbt.Library>
libRbt.so (2013.1, Build901 2013/11/27)

>  <Rbt.Parameter_File>
/export/apps/rDock/src/rDock_2013.1_src/data/scripts/dock_solv.prm

>  <Rbt.Receptor>
prm/pocket_docking_8.prm

>  <SCORE>
-13.8124

>  <SCORE.INTER>
-8.98535

>  <SCORE.INTER.CONST>
1

>  <SCORE.INTER.POLAR>
0

>  <SCORE.INTER.ROT>
7

>  <SCORE.INTER.SOLV>
14.4997

>  <SCORE.INTER.VDW>
-19.0901

>  <SCORE.INTER.norm>
-0.332791

>  <SCORE.INTRA>
-4.82701

>  <SCORE.INTRA.DIHEDRAL>
-8.54397

>  <SCORE.INTRA.DIHEDRAL.0>
13.9704

>  <SCORE.INTRA.POLAR>
0

>  <SCORE.INTRA.POLAR.0>
0

>  <SCORE.INTRA.REPUL>
0

>  <SCORE.INTRA.REPUL.0>
0

>  <SCORE.INTRA.SOLV>
1.21657

>  <SCORE.INTRA.SOLV.lig_0>
-70.9758

>  <SCORE.INTRA.VDW>
-1.16331

>  <SCORE.INTRA.VDW.0>
-2.70686

>  <SCORE.INTRA.norm>
-0.178778

>  <SCORE.RESTR>
0

>  <SCORE.RESTR.CAVITY>
0

>  <SCORE.RESTR.norm>
0

>  <SCORE.SYSTEM>
0

>  <SCORE.SYSTEM.CONST>
0

>  <SCORE.SYSTEM.DIHEDRAL>
0

>  <SCORE.SYSTEM.SOLV>
0

>  <SCORE.SYSTEM.norm>
0

>  <SCORE.heavy>
27

>  <SCORE.norm>
-0.511569

>  <RMSD>
5.680

$$$$
ligand
 OpenBabel11021811473D
libRbt.so/2013.1/901 2013/11/27
 27 29  0  0  0  0  0  0  0  0999 V2000
   43.2238   54.2862   32.7842 N   0  0  0  0  0  0  0  0  0  0  0  0
   44.1770   55.3202   33.1810 C   0  0  2  0  0  0  0  0  0  0  0  0
   44.2201   56.5225   32.2356 C   0  0  0  0  0  0  0  0  0  0  0  0
   43.5488   56.5029   31.2579 O   0  0  0  0  0  0  0  0  0  0  0  0
   45.5800   54.7941   33.5496 C   0  0  0  0  0  0  0  0  0  0  0  0
   46.6677   55.7934   34.0330 C   0  0  0  0  0  0  0  0  0  0  0  0
   48.0843   55.1964   34.2454 C   0  0  2  0  0  0  0  0  0  0  0  0
   48.1287   54.2034   35.3187 N   0  0  0  0  0  0  0  0  0  0  0  0
   49.1742   56.3030   34.3894 C   0  0  0  0  0  0  0  0  0  0  0  0
   49.4905   57.2070   33.1504 C   0  0  1  0  0  0  0  0  0  0  0  0
   50.0770   56.6008   31.9606 O   0  0  0  0  0  0  0  0  0  0  0  0
   48.3283   58.0847   32.6073 C   0  0  1  0  0  0  0  0  0  0  0  0
   47.8415   59.1426   33.4434 O   0  0  0  0  0  0  0  0  0  0  0  0
   48.7097   58.3972   31.1271 C   0  0  1  0  0  0  0  0  0  0  0  0
   49.0803   59.7159   30.8039 O   0  0  0  0  0  0  0  0  0  0  0  0
   49.6658   57.2530   30.7759 C   0  0  2  0  0  0  0  0  0  0  0  0
   44.6374   57.7661   32.7506 O   0  0  0  0  0  0  0  0  0  0  0  0
   47.2556   56.5801   25.9566 N   0  0  0  0  0  0  0  0  0  0  0  0
   47.7028   57.7784   26.5250 C   0  0  0  0  0  0  0  0  0  0  0  0
   48.3336   57.7723   27.8430 N   0  0  0  0  0  0  0  0  0  0  0  0
   48.4903   56.5947   28.5241 C   0  0  0  0  0  0  0  0  0  0  0  0
   48.0358   55.3935   27.9457 C   0  0  0  0  0  0  0  0  0  0  0  0
   47.4065   55.4005   26.6325 C   0  0  0  0  0  0  0  0  0  0  0  0
   46.9346   54.1534   26.0295 N   0  0  0  0  0  0  0  0  0  0  0  0
   48.3213   54.3203   28.8664 N   0  0  0  0  0  0  0  0  0  0  0  0
   48.9477   54.8830   30.0033 C   0  0  0  0  0  0  0  0  0  0  0  0
   49.0631   56.2898   29.8095 N   0  0  0  0  0  0  0  0  0  0  0  0
  2  1  1  6  0  0  0
  2  3  1  0  0  0  0
  2  5  1  0  0  0  0
  3  4  1  0  0  0  0
  3 17  1  0  0  0  0
  5  6  1  0  0  0  0
  7  6  1  1  0  0  0
  7  8  1  0  0  0  0
  7  9  1  0  0  0  0
 10  9  1  1  0  0  0
 10 11  1  0  0  0  0
 10 12  1  0  0  0  0
 11 16  1  0  0  0  0
 12 13  1  1  0  0  0
 12 14  1  0  0  0  0
 14 15  1  1  0  0  0
 14 16  1  0  0  0  0
 16 27  1  6  0  0  0
 18 19  2  0  0  0  0
 18 23  1  0  0  0  0
 19 20  1  0  0  0  0
 20 21  2  0  0  0  0
 21 22  1  0  0  0  0
 21 27  1  0  0  0  0
 22 23  2  0  0  0  0
 22 25  1  0  0  0  0
 23 24  1  0  0  0  0
 25 26  2  0  0  0  0
 26 27  1  0  0  0  0
M  END
>  <CHROM.1>
-3.19903896,-177.99971110,-174.16195796,-64.59401218,-66.35392321,-65.21816599
177.54019290,47.41866296,56.42283572,31.03645547,1.80805952,0.43991886,1.49244280

>  <Name>
ligand

>  <RI>
0

>  <Rbt.Current_Directory>
/home/itssahil/PROJECTS/Mol_Feturizer/New_Systems/rnas/3GX2

>  <Rbt.Executable>
rbdock ($Id: //depot/dev/client3/rdock/2013.1/src/exe/rbdock.cxx#4 $)

>  <Rbt.Library>
libRbt.so (2013.1, Build901 2013/11/27)

>  <Rbt.Parameter_File>
/export/apps/rDock/src/rDock_2013.1_src/data/scripts/dock_solv.prm

>  <Rbt.Receptor>
prm/pocket_docking_5.prm

>  <SCORE>
-9.71917

>  <SCORE.INTER>
-5.44919

>  <SCORE.INTER.CONST>
1

>  <SCORE.INTER.POLAR>
0

>  <SCORE.INTER.ROT>
7

>  <SCORE.INTER.SOLV>
12.5647

>  <SCORE.INTER.VDW>
-16.0877

>  <SCORE.INTER.norm>
-0.201822

>  <SCORE.INTRA>
-4.26998

>  <SCORE.INTRA.DIHEDRAL>
-8.77245

>  <SCORE.INTRA.DIHEDRAL.0>
13.9704

>  <SCORE.INTRA.POLAR>
0

>  <SCORE.INTRA.POLAR.0>
0

>  <SCORE.INTRA.REPUL>
0

>  <SCORE.INTRA.REPUL.0>
0

>  <SCORE.INTRA.SOLV>
0.237979

>  <SCORE.INTRA.SOLV.lig_0>
-70.9758

>  <SCORE.INTRA.VDW>
-0.00274292

>  <SCORE.INTRA.VDW.0>
-2.70686

>  <SCORE.INTRA.norm>
-0.158147

>  <SCORE.RESTR>
0

>  <SCORE.RESTR.CAVITY>
0

>  <SCORE.RESTR.norm>
0

>  <SCORE.SYSTEM>
0

>  <SCORE.SYSTEM.CONST>
0

>  <SCORE.SYSTEM.DIHEDRAL>
0

>  <SCORE.SYSTEM.SOLV>
0

>  <SCORE.SYSTEM.norm>
0

>  <SCORE.heavy>
27

>  <SCORE.norm>
-0.359969

>  <RMSD>
5.684

$$$$
ligand
 OpenBabel11021811473D
libRbt.so/2013.1/901 2013/11/27
 27 29  0  0  0  0  0  0  0  0999 V2000
   43.4037   51.9696   28.3197 N   0  0  0  0  0  0  0  0  0  0  0  0
   44.2317   52.6891   29.2849 C   0  0  2  0  0  0  0  0  0  0  0  0
   43.4527   53.2517   30.4757 C   0  0  0  0  0  0  0  0  0  0  0  0
   44.0124   53.3797   31.5135 O   0  0  0  0  0  0  0  0  0  0  0  0
   45.2016   53.7148   28.6617 C   0  0  0  0  0  0  0  0  0  0  0  0
   46.2744   54.3938   29.5580 C   0  0  0  0  0  0  0  0  0  0  0  0
   46.9922   55.6216   28.9368 C   0  0  2  0  0  0  0  0  0  0  0  0
   48.1871   56.0193   29.6812 N   0  0  0  0  0  0  0  0  0  0  0  0
   46.0119   56.8061   28.6738 C   0  0  0  0  0  0  0  0  0  0  0  0
   45.3878   57.5476   29.9038 C   0  0  1  0  0  0  0  0  0  0  0  0
   44.7069   56.7686   30.9317 O   0  0  0  0  0  0  0  0  0  0  0  0
   46.3235   58.5032   30.6958 C   0  0  1  0  0  0  0  0  0  0  0  0
   46.7915   59.6842   30.0313 O   0  0  0  0  0  0  0  0  0  0  0  0
   45.6761   58.6300   32.1096 C   0  0  1  0  0  0  0  0  0  0  0  0
   45.0880   59.8598   32.4598 O   0  0  0  0  0  0  0  0  0  0  0  0
   44.8365   57.3527   32.2123 C   0  0  2  0  0  0  0  0  0  0  0  0
   42.3058   54.0294   30.2198 O   0  0  0  0  0  0  0  0  0  0  0  0
   49.1783   55.8423   35.1027 N   0  0  0  0  0  0  0  0  0  0  0  0
   49.0779   56.9227   34.2186 C   0  0  0  0  0  0  0  0  0  0  0  0
   47.8210   57.1820   33.5201 N   0  0  0  0  0  0  0  0  0  0  0  0
   46.7383   56.3702   33.7300 C   0  0  0  0  0  0  0  0  0  0  0  0
   46.8485   55.2840   34.6200 C   0  0  0  0  0  0  0  0  0  0  0  0
   48.1017   55.0257   35.3151 C   0  0  0  0  0  0  0  0  0  0  0  0
   48.2178   53.8983   36.2408 N   0  0  0  0  0  0  0  0  0  0  0  0
   45.5769   54.6035   34.6512 N   0  0  0  0  0  0  0  0  0  0  0  0
   44.7018   55.2849   33.7729 C   0  0  0  0  0  0  0  0  0  0  0  0
   45.4017   56.3828   33.1944 N   0  0  0  0  0  0  0  0  0  0  0  0
  2  1  1  6  0  0  0
  2  3  1  0  0  0  0
  2  5  1  0  0  0  0
  3  4  1  0  0  0  0
  3 17  1  0  0  0  0
  5  6  1  0  0  0  0
  7  6  1  1  0  0  0
  7  8  1  0  0  0  0
  7  9  1  0  0  0  0
 10  9  1  6  0  0  0
 10 11  1  0  0  0  0
 10 12  1  0  0  0  0
 11 16  1  0  0  0  0
 12 13  1  6  0  0  0
 12 14  1  0  0  0  0
 14 15  1  6  0  0  0
 14 16  1  0  0  0  0
 16 27  1  1  0  0  0
 18 19  2  0  0  0  0
 18 23  1  0  0  0  0
 19 20  1  0  0  0  0
 20 21  2  0  0  0  0
 21 22  1  0  0  0  0
 21 27  1  0  0  0  0
 22 23  2  0  0  0  0
 22 25  1  0  0  0  0
 23 24  1  0  0  0  0
 25 26  2  0  0  0  0
 26 27  1  0  0  0  0
M  END
>  <CHROM.1>
151.36369157,-171.26777473,-167.13872413,-166.56151110,68.02612787,-52.85111390
105.60274780,45.89128013,55.83359578,31.71346257,3.00219052,-1.03005930,-0.63063108

>  <Name>
ligand

>  <RI>
0

>  <Rbt.Current_Directory>
/home/itssahil/PROJECTS/Mol_Feturizer/New_Systems/rnas/3GX2

>  <Rbt.Executable>
rbdock ($Id: //depot/dev/client3/rdock/2013.1/src/exe/rbdock.cxx#4 $)

>  <Rbt.Library>
libRbt.so (2013.1, Build901 2013/11/27)

>  <Rbt.Parameter_File>
/export/apps/rDock/src/rDock_2013.1_src/data/scripts/dock_solv.prm

>  <Rbt.Receptor>
prm/pocket_docking_6.prm

>  <SCORE>
-8.57862

>  <SCORE.INTER>
-4.90003

>  <SCORE.INTER.CONST>
1

>  <SCORE.INTER.POLAR>
0

>  <SCORE.INTER.ROT>
7

>  <SCORE.INTER.SOLV>
13.4228

>  <SCORE.INTER.VDW>
-16.0076

>  <SCORE.INTER.norm>
-0.181483

>  <SCORE.INTRA>
-3.67859

>  <SCORE.INTRA.DIHEDRAL>
-7.16041

>  <SCORE.INTRA.DIHEDRAL.0>
13.9704

>  <SCORE.INTRA.POLAR>
0

>  <SCORE.INTRA.POLAR.0>
0

>  <SCORE.INTRA.REPUL>
0

>  <SCORE.INTRA.REPUL.0>
0

>  <SCORE.INTRA.SOLV>
2.14644

>  <SCORE.INTRA.SOLV.lig_0>
-70.9758

>  <SCORE.INTRA.VDW>
-1.17161

>  <SCORE.INTRA.VDW.0>
-2.70686

>  <SCORE.INTRA.norm>
-0.136244

>  <SCORE.RESTR>
0

>  <SCORE.RESTR.CAVITY>
0

>  <SCORE.RESTR.norm>
0

>  <SCORE.SYSTEM>
0

>  <SCORE.SYSTEM.CONST>
0

>  <SCORE.SYSTEM.DIHEDRAL>
0

>  <SCORE.SYSTEM.SOLV>
0

>  <SCORE.SYSTEM.norm>
0

>  <SCORE.heavy>
27

>  <SCORE.norm>
-0.317727

>  <RMSD>
5.698

$$$$
ligand
 OpenBabel11021811473D
libRbt.so/2013.1/901 2013/11/27
 27 29  0  0  0  0  0  0  0  0999 V2000
   52.0839   54.1606   28.0347 N   0  0  0  0  0  0  0  0  0  0  0  0
   50.6790   53.8065   28.2241 C   0  0  2  0  0  0  0  0  0  0  0  0
   50.1482   54.0967   29.6295 C   0  0  0  0  0  0  0  0  0  0  0  0
   50.5858   53.4789   30.5426 O   0  0  0  0  0  0  0  0  0  0  0  0
   50.2956   52.4013   27.7144 C   0  0  0  0  0  0  0  0  0  0  0  0
   48.7952   52.0101   27.6094 C   0  0  0  0  0  0  0  0  0  0  0  0
   47.9475   52.8510   26.6180 C   0  0  2  0  0  0  0  0  0  0  0  0
   48.6225   53.0751   25.3397 N   0  0  0  0  0  0  0  0  0  0  0  0
   47.4134   54.1649   27.2673 C   0  0  0  0  0  0  0  0  0  0  0  0
   46.1837   54.0757   28.2329 C   0  0  1  0  0  0  0  0  0  0  0  0
   46.2247   53.1386   29.3497 O   0  0  0  0  0  0  0  0  0  0  0  0
   45.6866   55.4078   28.8608 C   0  0  1  0  0  0  0  0  0  0  0  0
   45.1173   56.3892   27.9846 O   0  0  0  0  0  0  0  0  0  0  0  0
   44.9060   54.9880   30.1448 C   0  0  1  0  0  0  0  0  0  0  0  0
   43.5070   55.1417   30.1481 O   0  0  0  0  0  0  0  0  0  0  0  0
   45.4999   53.6130   30.4666 C   0  0  2  0  0  0  0  0  0  0  0  0
   49.5561   55.3511   29.8772 O   0  0  0  0  0  0  0  0  0  0  0  0
   45.6991   52.9758   35.8556 N   0  0  0  0  0  0  0  0  0  0  0  0
   44.5816   52.8437   35.0234 C   0  0  0  0  0  0  0  0  0  0  0  0
   44.7129   53.0537   33.5834 N   0  0  0  0  0  0  0  0  0  0  0  0
   45.9293   53.3784   33.0447 C   0  0  0  0  0  0  0  0  0  0  0  0
   47.0485   53.5113   33.8895 C   0  0  0  0  0  0  0  0  0  0  0  0
   46.9167   53.3026   35.3246 C   0  0  0  0  0  0  0  0  0  0  0  0
   48.0785   53.4393   36.2038 N   0  0  0  0  0  0  0  0  0  0  0  0
   48.1854   53.8557   33.0711 N   0  0  0  0  0  0  0  0  0  0  0  0
   47.7433   53.9320   31.7294 C   0  0  0  0  0  0  0  0  0  0  0  0
   46.3498   53.6377   31.6921 N   0  0  0  0  0  0  0  0  0  0  0  0
  2  1  1  1  0  0  0
  2  3  1  0  0  0  0
  2  5  1  0  0  0  0
  3  4  1  0  0  0  0
  3 17  1  0  0  0  0
  5  6  1  0  0  0  0
  7  6  1  1  0  0  0
  7  8  1  0  0  0  0
  7  9  1  0  0  0  0
 10  9  1  1  0  0  0
 10 11  1  0  0  0  0
 10 12  1  0  0  0  0
 11 16  1  0  0  0  0
 12 13  1  6  0  0  0
 12 14  1  0  0  0  0
 14 15  1  6  0  0  0
 14 16  1  0  0  0  0
 16 27  1  1  0  0  0
 18 19  2  0  0  0  0
 18 23  1  0  0  0  0
 19 20  1  0  0  0  0
 20 21  2  0  0  0  0
 21 22  1  0  0  0  0
 21 27  1  0  0  0  0
 22 23  2  0  0  0  0
 22 25  1  0  0  0  0
 23 24  1  0  0  0  0
 25 26  2  0  0  0  0
 26 27  1  0  0  0  0
M  END
>  <CHROM.1>
-66.14219417,-168.46936171,62.68563656,44.29671833,-77.49615929,52.75173053
-145.50315941,47.36800100,53.80936653,30.49022787,-1.14706976,-0.18762518
1.68998180

>  <Name>
ligand

>  <RI>
0

>  <Rbt.Current_Directory>
/home/itssahil/PROJECTS/Mol_Feturizer/New_Systems/rnas/3GX2

>  <Rbt.Executable>
rbdock ($Id: //depot/dev/client3/rdock/2013.1/src/exe/rbdock.cxx#4 $)

>  <Rbt.Library>
libRbt.so (2013.1, Build901 2013/11/27)

>  <Rbt.Parameter_File>
/export/apps/rDock/src/rDock_2013.1_src/data/scripts/dock_solv.prm

>  <Rbt.Receptor>
prm/pocket_docking_6.prm

>  <SCORE>
-6.27799

>  <SCORE.INTER>
-2.36197

>  <SCORE.INTER.CONST>
1

>  <SCORE.INTER.POLAR>
0

>  <SCORE.INTER.ROT>
7

>  <SCORE.INTER.SOLV>
14.4559

>  <SCORE.INTER.VDW>
-14.6599

>  <SCORE.INTER.norm>
-0.0874803

>  <SCORE.INTRA>
-3.91602

>  <SCORE.INTRA.DIHEDRAL>
-6.8578

>  <SCORE.INTRA.DIHEDRAL.0>
13.9704

>  <SCORE.INTRA.POLAR>
0

>  <SCORE.INTRA.POLAR.0>
0

>  <SCORE.INTRA.REPUL>
0

>  <SCORE.INTRA.REPUL.0>
0

>  <SCORE.INTRA.SOLV>
1.35202

>  <SCORE.INTRA.SOLV.lig_0>
-70.9758

>  <SCORE.INTRA.VDW>
-1.16313

>  <SCORE.INTRA.VDW.0>
-2.70686

>  <SCORE.INTRA.norm>
-0.145038

>  <SCORE.RESTR>
0

>  <SCORE.RESTR.CAVITY>
0

>  <SCORE.RESTR.norm>
0

>  <SCORE.SYSTEM>
0

>  <SCORE.SYSTEM.CONST>
0

>  <SCORE.SYSTEM.DIHEDRAL>
0

>  <SCORE.SYSTEM.SOLV>
0

>  <SCORE.SYSTEM.norm>
0

>  <SCORE.heavy>
27

>  <SCORE.norm>
-0.232518

>  <RMSD>
5.718

$$$$
ligand
 OpenBabel11021811483D
libRbt.so/2013.1/901 2013/11/27
 27 29  0  0  0  0  0  0  0  0999 V2000
   48.8111   59.5053   30.8371 N   0  0  0  0  0  0  0  0  0  0  0  0
   48.7776   58.1953   30.1908 C   0  0  2  0  0  0  0  0  0  0  0  0
   48.6218   58.2557   28.6698 C   0  0  0  0  0  0  0  0  0  0  0  0
   49.3655   57.6241   27.9954 O   0  0  0  0  0  0  0  0  0  0  0  0
   47.8273   57.1757   30.8529 C   0  0  0  0  0  0  0  0  0  0  0  0
   46.3110   57.5004   30.9565 C   0  0  0  0  0  0  0  0  0  0  0  0
   45.4722   56.5294   31.8294 C   0  0  2  0  0  0  0  0  0  0  0  0
   44.0352   56.7922   31.7531 N   0  0  0  0  0  0  0  0  0  0  0  0
   46.0028   56.4463   33.2939 C   0  0  0  0  0  0  0  0  0  0  0  0
   47.2524   55.5491   33.5869 C   0  0  1  0  0  0  0  0  0  0  0  0
   47.9771   55.7285   34.8398 O   0  0  0  0  0  0  0  0  0  0  0  0
   47.0559   54.0119   33.4678 C   0  0  1  0  0  0  0  0  0  0  0  0
   46.7850   53.4705   32.1683 O   0  0  0  0  0  0  0  0  0  0  0  0
   48.1944   53.3863   34.3319 C   0  0  1  0  0  0  0  0  0  0  0  0
   49.2385   52.7175   33.6660 O   0  0  0  0  0  0  0  0  0  0  0  0
   48.5421   54.5187   35.3033 C   0  0  2  0  0  0  0  0  0  0  0  0
   47.3721   58.6315   28.1380 O   0  0  0  0  0  0  0  0  0  0  0  0
   44.3633   53.6762   38.6671 N   0  0  0  0  0  0  0  0  0  0  0  0
   44.3104   53.9511   37.2958 C   0  0  0  0  0  0  0  0  0  0  0  0
   45.5457   54.1522   36.5417 N   0  0  0  0  0  0  0  0  0  0  0  0
   46.7576   54.0705   37.1741 C   0  0  0  0  0  0  0  0  0  0  0  0
   46.8018   53.7953   38.5549 C   0  0  0  0  0  0  0  0  0  0  0  0
   45.5703   53.5958   39.3058 C   0  0  0  0  0  0  0  0  0  0  0  0
   45.6143   53.3088   40.7401 N   0  0  0  0  0  0  0  0  0  0  0  0
   48.1863   53.7678   38.9589 N   0  0  0  0  0  0  0  0  0  0  0  0
   48.9748   54.0306   37.8141 C   0  0  0  0  0  0  0  0  0  0  0  0
   48.1086   54.2189   36.6986 N   0  0  0  0  0  0  0  0  0  0  0  0
  2  1  1  1  0  0  0
  2  3  1  0  0  0  0
  2  5  1  0  0  0  0
  3  4  1  0  0  0  0
  3 17  1  0  0  0  0
  5  6  1  0  0  0  0
  7  6  1  6  0  0  0
  7  8  1  0  0  0  0
  7  9  1  0  0  0  0
 10  9  1  1  0  0  0
 10 11  1  0  0  0  0
 10 12  1  0  0  0  0
 11 16  1  0  0  0  0
 12 13  1  6  0  0  0
 12 14  1  0  0  0  0
 14 15  1  6  0  0  0
 14 16  1  0  0  0  0
 16 27  1  1  0  0  0
 18 19  2  0  0  0  0
 18 23  1  0  0  0  0
 19 20  1  0  0  0  0
 20 21  2  0  0  0  0
 21 22  1  0  0  0  0
 21 27  1  0  0  0  0
 22 23  2  0  0  0  0
 22 25  1  0  0  0  0
 23 24  1  0  0  0  0
 25 26  2  0  0  0  0
 26 27  1  0  0  0  0
M  END
>  <CHROM.1>
130.38836696,59.71636052,-170.72764614,-172.93596837,-79.52480618,163.67142488
57.74355124,47.14002596,55.39508027,34.06124319,-1.41686060,-0.25060299,2.05495950

>  <Name>
ligand

>  <RI>
0

>  <Rbt.Current_Directory>
/home/itssahil/PROJECTS/Mol_Feturizer/New_Systems/rnas/3GX2

>  <Rbt.Executable>
rbdock ($Id: //depot/dev/client3/rdock/2013.1/src/exe/rbdock.cxx#4 $)

>  <Rbt.Library>
libRbt.so (2013.1, Build901 2013/11/27)

>  <Rbt.Parameter_File>
/export/apps/rDock/src/rDock_2013.1_src/data/scripts/dock_solv.prm

>  <Rbt.Receptor>
prm/pocket_docking_8.prm

>  <SCORE>
-12.6804

>  <SCORE.INTER>
-9.33059

>  <SCORE.INTER.CONST>
1

>  <SCORE.INTER.POLAR>
0

>  <SCORE.INTER.ROT>
7

>  <SCORE.INTER.SOLV>
15.4559

>  <SCORE.INTER.VDW>
-19.639

>  <SCORE.INTER.norm>
-0.345577

>  <SCORE.INTRA>
-3.34984

>  <SCORE.INTRA.DIHEDRAL>
-6.3995

>  <SCORE.INTRA.DIHEDRAL.0>
13.9704

>  <SCORE.INTRA.POLAR>
0

>  <SCORE.INTRA.POLAR.0>
0

>  <SCORE.INTRA.REPUL>
0

>  <SCORE.INTRA.REPUL.0>
0

>  <SCORE.INTRA.SOLV>
-0.0787738

>  <SCORE.INTRA.SOLV.lig_0>
-70.9758

>  <SCORE.INTRA.VDW>
-0.110704

>  <SCORE.INTRA.VDW.0>
-2.70686

>  <SCORE.INTRA.norm>
-0.124068

>  <SCORE.RESTR>
0

>  <SCORE.RESTR.CAVITY>
0

>  <SCORE.RESTR.norm>
0

>  <SCORE.SYSTEM>
0

>  <SCORE.SYSTEM.CONST>
0

>  <SCORE.SYSTEM.DIHEDRAL>
0

>  <SCORE.SYSTEM.SOLV>
0

>  <SCORE.SYSTEM.norm>
0

>  <SCORE.heavy>
27

>  <SCORE.norm>
-0.469646

>  <RMSD>
5.728

$$$$
ligand
 OpenBabel11021811483D
libRbt.so/2013.1/901 2013/11/27
 27 29  0  0  0  0  0  0  0  0999 V2000
   44.5663   58.2405   33.0671 N   0  0  0  0  0  0  0  0  0  0  0  0
   45.2564   57.9048   31.8237 C   0  0  2  0  0  0  0  0  0  0  0  0
   44.5748   56.8011   31.0123 C   0  0  0  0  0  0  0  0  0  0  0  0
   44.0513   55.9084   31.5919 O   0  0  0  0  0  0  0  0  0  0  0  0
   46.7777   57.6920   31.9699 C   0  0  0  0  0  0  0  0  0  0  0  0
   47.6759   58.8799   32.4139 C   0  0  0  0  0  0  0  0  0  0  0  0
   49.1612   58.5318   32.6988 C   0  0  2  0  0  0  0  0  0  0  0  0
   49.8140   57.8597   31.5754 N   0  0  0  0  0  0  0  0  0  0  0  0
   49.3401   57.7768   34.0520 C   0  0  0  0  0  0  0  0  0  0  0  0
   49.6041   56.2336   34.0182 C   0  0  1  0  0  0  0  0  0  0  0  0
   49.7419   55.5092   35.2766 O   0  0  0  0  0  0  0  0  0  0  0  0
   48.6200   55.3716   33.1789 C   0  0  1  0  0  0  0  0  0  0  0  0
   48.6165   55.5534   31.7569 O   0  0  0  0  0  0  0  0  0  0  0  0
   48.7399   53.9297   33.7626 C   0  0  1  0  0  0  0  0  0  0  0  0
   49.3604   52.9452   32.9709 O   0  0  0  0  0  0  0  0  0  0  0  0
   49.2677   54.1813   35.1785 C   0  0  2  0  0  0  0  0  0  0  0  0
   44.1643   57.0923   29.6961 O   0  0  0  0  0  0  0  0  0  0  0  0
   44.0170   54.3856   36.5484 N   0  0  0  0  0  0  0  0  0  0  0  0
   44.6002   54.8026   35.3463 C   0  0  0  0  0  0  0  0  0  0  0  0
   46.0420   54.6723   35.1488 N   0  0  0  0  0  0  0  0  0  0  0  0
   46.8256   54.1407   36.1380 C   0  0  0  0  0  0  0  0  0  0  0  0
   46.2310   53.7252   37.3454 C   0  0  0  0  0  0  0  0  0  0  0  0
   44.7941   53.8560   37.5418 C   0  0  0  0  0  0  0  0  0  0  0  0
   44.1744   53.4241   38.7952 N   0  0  0  0  0  0  0  0  0  0  0  0
   47.2729   53.2125   38.2012 N   0  0  0  0  0  0  0  0  0  0  0  0
   48.4983   53.3242   37.5029 C   0  0  0  0  0  0  0  0  0  0  0  0
   48.2419   53.8948   36.2228 N   0  0  0  0  0  0  0  0  0  0  0  0
  2  1  1  1  0  0  0
  2  3  1  0  0  0  0
  2  5  1  0  0  0  0
  3  4  1  0  0  0  0
  3 17  1  0  0  0  0
  5  6  1  0  0  0  0
  7  6  1  6  0  0  0
  7  8  1  0  0  0  0
  7  9  1  0  0  0  0
 10  9  1  1  0  0  0
 10 11  1  0  0  0  0
 10 12  1  0  0  0  0
 11 16  1  0  0  0  0
 12 13  1  6  0  0  0
 12 14  1  0  0  0  0
 14 15  1  6  0  0  0
 14 16  1  0  0  0  0
 16 27  1  1  0  0  0
 18 19  2  0  0  0  0
 18 23  1  0  0  0  0
 19 20  1  0  0  0  0
 20 21  2  0  0  0  0
 21 22  1  0  0  0  0
 21 27  1  0  0  0  0
 22 23  2  0  0  0  0
 22 25  1  0  0  0  0
 23 24  1  0  0  0  0
 25 26  2  0  0  0  0
 26 27  1  0  0  0  0
M  END
>  <CHROM.1>
-36.19211063,-63.71612035,172.91048594,54.51600306,104.09558233,-178.56786206
86.55353912,47.04922982,55.57797065,34.15314432,1.54330230,0.02544181,-0.97001114

>  <Name>
ligand

>  <RI>
0

>  <Rbt.Current_Directory>
/home/itssahil/PROJECTS/Mol_Feturizer/New_Systems/rnas/3GX2

>  <Rbt.Executable>
rbdock ($Id: //depot/dev/client3/rdock/2013.1/src/exe/rbdock.cxx#4 $)

>  <Rbt.Library>
libRbt.so (2013.1, Build901 2013/11/27)

>  <Rbt.Parameter_File>
/export/apps/rDock/src/rDock_2013.1_src/data/scripts/dock_solv.prm

>  <Rbt.Receptor>
prm/pocket_docking_7.prm

>  <SCORE>
-12.1566

>  <SCORE.INTER>
-11.6304

>  <SCORE.INTER.CONST>
1

>  <SCORE.INTER.POLAR>
0

>  <SCORE.INTER.ROT>
7

>  <SCORE.INTER.SOLV>
18.0976

>  <SCORE.INTER.VDW>
-22.0528

>  <SCORE.INTER.norm>
-0.430757

>  <SCORE.INTRA>
-0.526204

>  <SCORE.INTRA.DIHEDRAL>
-4.56572

>  <SCORE.INTRA.DIHEDRAL.0>
13.9704

>  <SCORE.INTRA.POLAR>
0

>  <SCORE.INTRA.POLAR.0>
0

>  <SCORE.INTRA.REPUL>
0

>  <SCORE.INTRA.REPUL.0>
0

>  <SCORE.INTRA.SOLV>
3.43151

>  <SCORE.INTRA.SOLV.lig_0>
-70.9758

>  <SCORE.INTRA.VDW>
0.0409017

>  <SCORE.INTRA.VDW.0>
-2.70686

>  <SCORE.INTRA.norm>
-0.019489

>  <SCORE.RESTR>
0

>  <SCORE.RESTR.CAVITY>
0

>  <SCORE.RESTR.norm>
0

>  <SCORE.SYSTEM>
0

>  <SCORE.SYSTEM.CONST>
0

>  <SCORE.SYSTEM.DIHEDRAL>
0

>  <SCORE.SYSTEM.SOLV>
0

>  <SCORE.SYSTEM.norm>
0

>  <SCORE.heavy>
27

>  <SCORE.norm>
-0.450246

>  <RMSD>
5.752

$$$$
ligand
 OpenBabel11021811473D
libRbt.so/2013.1/901 2013/11/27
 27 29  0  0  0  0  0  0  0  0999 V2000
   51.0479   52.6954   27.7935 N   0  0  0  0  0  0  0  0  0  0  0  0
   49.8035   52.0685   27.3534 C   0  0  2  0  0  0  0  0  0  0  0  0
   49.6442   52.0020   25.8331 C   0  0  0  0  0  0  0  0  0  0  0  0
   50.2146   52.7990   25.1650 O   0  0  0  0  0  0  0  0  0  0  0  0
   48.5366   52.5819   28.0693 C   0  0  0  0  0  0  0  0  0  0  0  0
   48.2452   52.1264   29.5263 C   0  0  0  0  0  0  0  0  0  0  0  0
   47.0601   52.8391   30.2306 C   0  0  2  0  0  0  0  0  0  0  0  0
   45.8807   52.9641   29.3742 N   0  0  0  0  0  0  0  0  0  0  0  0
   47.4889   54.1894   30.8834 C   0  0  0  0  0  0  0  0  0  0  0  0
   46.3978   55.0520   31.6030 C   0  0  1  0  0  0  0  0  0  0  0  0
   45.5466   54.4256   32.6082 O   0  0  0  0  0  0  0  0  0  0  0  0
   46.8736   56.3749   32.2658 C   0  0  1  0  0  0  0  0  0  0  0  0
   47.3483   57.4205   31.4074 O   0  0  0  0  0  0  0  0  0  0  0  0
   45.7936   56.7040   33.3425 C   0  0  1  0  0  0  0  0  0  0  0  0
   44.9467   57.8048   33.1147 O   0  0  0  0  0  0  0  0  0  0  0  0
   45.1673   55.3343   33.6222 C   0  0  2  0  0  0  0  0  0  0  0  0
   49.2576   50.7778   25.2521 O   0  0  0  0  0  0  0  0  0  0  0  0
   49.1420   54.3059   37.1763 N   0  0  0  0  0  0  0  0  0  0  0  0
   49.2671   54.8508   35.8932 C   0  0  0  0  0  0  0  0  0  0  0  0
   48.0794   55.0595   35.0680 N   0  0  0  0  0  0  0  0  0  0  0  0
   46.8417   54.7242   35.5483 C   0  0  0  0  0  0  0  0  0  0  0  0
   46.7248   54.1746   36.8400 C   0  0  0  0  0  0  0  0  0  0  0  0
   47.9089   53.9662   37.6615 C   0  0  0  0  0  0  0  0  0  0  0  0
   47.7894   53.3962   39.0040 N   0  0  0  0  0  0  0  0  0  0  0  0
   45.3276   53.9161   37.0888 N   0  0  0  0  0  0  0  0  0  0  0  0
   44.6047   54.3107   35.9385 C   0  0  0  0  0  0  0  0  0  0  0  0
   45.5242   54.8156   34.9744 N   0  0  0  0  0  0  0  0  0  0  0  0
  2  1  1  6  0  0  0
  2  3  1  0  0  0  0
  2  5  1  0  0  0  0
  3  4  1  0  0  0  0
  3 17  1  0  0  0  0
  5  6  1  0  0  0  0
  7  6  1  6  0  0  0
  7  8  1  0  0  0  0
  7  9  1  0  0  0  0
 10  9  1  1  0  0  0
 10 11  1  0  0  0  0
 10 12  1  0  0  0  0
 11 16  1  0  0  0  0
 12 13  1  6  0  0  0
 12 14  1  0  0  0  0
 14 15  1  6  0  0  0
 14 16  1  0  0  0  0
 16 27  1  1  0  0  0
 18 19  2  0  0  0  0
 18 23  1  0  0  0  0
 19 20  1  0  0  0  0
 20 21  2  0  0  0  0
 21 22  1  0  0  0  0
 21 27  1  0  0  0  0
 22 23  2  0  0  0  0
 22 25  1  0  0  0  0
 23 24  1  0  0  0  0
 25 26  2  0  0  0  0
 26 27  1  0  0  0  0
M  END
>  <CHROM.1>
-25.45535641,-75.24065004,172.01244457,44.52565970,178.39203614,51.65151688
72.89743248,47.43850583,54.13873994,32.16690995,-1.21038572,-0.76129526,1.56715728

>  <Name>
ligand

>  <RI>
0

>  <Rbt.Current_Directory>
/home/itssahil/PROJECTS/Mol_Feturizer/New_Systems/rnas/3GX2

>  <Rbt.Executable>
rbdock ($Id: //depot/dev/client3/rdock/2013.1/src/exe/rbdock.cxx#4 $)

>  <Rbt.Library>
libRbt.so (2013.1, Build901 2013/11/27)

>  <Rbt.Parameter_File>
/export/apps/rDock/src/rDock_2013.1_src/data/scripts/dock_solv.prm

>  <Rbt.Receptor>
prm/pocket_docking_5.prm

>  <SCORE>
-12.1929

>  <SCORE.INTER>
-9.11356

>  <SCORE.INTER.CONST>
1

>  <SCORE.INTER.POLAR>
0

>  <SCORE.INTER.ROT>
7

>  <SCORE.INTER.SOLV>
15.9955

>  <SCORE.INTER.VDW>
-19.6742

>  <SCORE.INTER.norm>
-0.337539

>  <SCORE.INTRA>
-3.07936

>  <SCORE.INTRA.DIHEDRAL>
-7.3046

>  <SCORE.INTRA.DIHEDRAL.0>
13.9704

>  <SCORE.INTRA.POLAR>
0

>  <SCORE.INTRA.POLAR.0>
0

>  <SCORE.INTRA.REPUL>
0

>  <SCORE.INTRA.REPUL.0>
0

>  <SCORE.INTRA.SOLV>
1.09154

>  <SCORE.INTRA.SOLV.lig_0>
-70.9758

>  <SCORE.INTRA.VDW>
0.0271716

>  <SCORE.INTRA.VDW.0>
-2.70686

>  <SCORE.INTRA.norm>
-0.11405

>  <SCORE.RESTR>
0

>  <SCORE.RESTR.CAVITY>
0

>  <SCORE.RESTR.norm>
0

>  <SCORE.SYSTEM>
0

>  <SCORE.SYSTEM.CONST>
0

>  <SCORE.SYSTEM.DIHEDRAL>
0

>  <SCORE.SYSTEM.SOLV>
0

>  <SCORE.SYSTEM.norm>
0

>  <SCORE.heavy>
27

>  <SCORE.norm>
-0.451589

>  <RMSD>
5.764

$$$$
ligand
 OpenBabel11021811483D
libRbt.so/2013.1/901 2013/11/27
 27 29  0  0  0  0  0  0  0  0999 V2000
   50.6338   54.3663   28.5092 N   0  0  0  0  0  0  0  0  0  0  0  0
   50.2605   53.2414   29.3637 C   0  0  2  0  0  0  0  0  0  0  0  0
   49.4130   52.1796   28.6597 C   0  0  0  0  0  0  0  0  0  0  0  0
   48.9882   51.2745   29.2978 O   0  0  0  0  0  0  0  0  0  0  0  0
   49.6989   53.6412   30.7443 C   0  0  0  0  0  0  0  0  0  0  0  0
   48.3932   54.4801   30.8238 C   0  0  0  0  0  0  0  0  0  0  0  0
   47.9477   54.8997   32.2500 C   0  0  2  0  0  0  0  0  0  0  0  0
   48.9437   55.7200   32.9393 N   0  0  0  0  0  0  0  0  0  0  0  0
   47.4636   53.6829   33.0976 C   0  0  0  0  0  0  0  0  0  0  0  0
   47.0805   53.9212   34.5972 C   0  0  1  0  0  0  0  0  0  0  0  0
   45.9955   54.8426   34.9149 O   0  0  0  0  0  0  0  0  0  0  0  0
   46.7829   52.6592   35.4543 C   0  0  1  0  0  0  0  0  0  0  0  0
   47.8666   51.7588   35.7185 O   0  0  0  0  0  0  0  0  0  0  0  0
   45.9086   53.1688   36.6418 C   0  0  1  0  0  0  0  0  0  0  0  0
   46.4847   53.1900   37.9258 O   0  0  0  0  0  0  0  0  0  0  0  0
   45.2989   54.4584   36.0832 C   0  0  2  0  0  0  0  0  0  0  0  0
   48.7681   52.5261   27.4557 O   0  0  0  0  0  0  0  0  0  0  0  0
   41.3035   54.7810   32.4199 N   0  0  0  0  0  0  0  0  0  0  0  0
   42.6688   55.0097   32.2131 C   0  0  0  0  0  0  0  0  0  0  0  0
   43.6092   54.8767   33.3235 N   0  0  0  0  0  0  0  0  0  0  0  0
   43.1577   54.5266   34.5679 C   0  0  0  0  0  0  0  0  0  0  0  0
   41.7819   54.3001   34.7679 C   0  0  0  0  0  0  0  0  0  0  0  0
   40.8451   54.4335   33.6610 C   0  0  0  0  0  0  0  0  0  0  0  0
   39.4156   54.1977   33.8666 N   0  0  0  0  0  0  0  0  0  0  0  0
   41.5850   53.9520   36.1539 N   0  0  0  0  0  0  0  0  0  0  0  0
   42.8499   53.9730   36.7874 C   0  0  0  0  0  0  0  0  0  0  0  0
   43.8366   54.3246   35.8216 N   0  0  0  0  0  0  0  0  0  0  0  0
  2  1  1  6  0  0  0
  2  3  1  0  0  0  0
  2  5  1  0  0  0  0
  3  4  1  0  0  0  0
  3 17  1  0  0  0  0
  5  6  1  0  0  0  0
  7  6  1  6  0  0  0
  7  8  1  0  0  0  0
  7  9  1  0  0  0  0
 10  9  1  6  0  0  0
 10 11  1  0  0  0  0
 10 12  1  0  0  0  0
 11 16  1  0  0  0  0
 12 13  1  1  0  0  0
 12 14  1  0  0  0  0
 14 15  1  1  0  0  0
 14 16  1  0  0  0  0
 16 27  1  6  0  0  0
 18 19  2  0  0  0  0
 18 23  1  0  0  0  0
 19 20  1  0  0  0  0
 20 21  2  0  0  0  0
 21 22  1  0  0  0  0
 21 27  1  0  0  0  0
 22 23  2  0  0  0  0
 22 25  1  0  0  0  0
 23 24  1  0  0  0  0
 25 26  2  0  0  0  0
 26 27  1  0  0  0  0
M  END
>  <CHROM.1>
-175.03536124,61.65930561,-176.79697511,60.05939720,175.50425185,60.66549099
0.79705955,45.92665807,53.82643896,33.22467744,0.67595922,0.16419379,-1.54378808

>  <Name>
ligand

>  <RI>
0

>  <Rbt.Current_Directory>
/home/itssahil/PROJECTS/Mol_Feturizer/New_Systems/rnas/3GX2

>  <Rbt.Executable>
rbdock ($Id: //depot/dev/client3/rdock/2013.1/src/exe/rbdock.cxx#4 $)

>  <Rbt.Library>
libRbt.so (2013.1, Build901 2013/11/27)

>  <Rbt.Parameter_File>
/export/apps/rDock/src/rDock_2013.1_src/data/scripts/dock_solv.prm

>  <Rbt.Receptor>
prm/pocket_docking_8.prm

>  <SCORE>
-10.8428

>  <SCORE.INTER>
-7.46917

>  <SCORE.INTER.CONST>
1

>  <SCORE.INTER.POLAR>
0

>  <SCORE.INTER.ROT>
7

>  <SCORE.INTER.SOLV>
9.98836

>  <SCORE.INTER.VDW>
-16.5756

>  <SCORE.INTER.norm>
-0.276636

>  <SCORE.INTRA>
-3.37365

>  <SCORE.INTRA.DIHEDRAL>
-9.41473

>  <SCORE.INTRA.DIHEDRAL.0>
13.9704

>  <SCORE.INTRA.POLAR>
0

>  <SCORE.INTRA.POLAR.0>
0

>  <SCORE.INTRA.REPUL>
0

>  <SCORE.INTRA.REPUL.0>
0

>  <SCORE.INTRA.SOLV>
1.36032

>  <SCORE.INTRA.SOLV.lig_0>
-70.9758

>  <SCORE.INTRA.VDW>
0.653557

>  <SCORE.INTRA.VDW.0>
-2.70686

>  <SCORE.INTRA.norm>
-0.12495

>  <SCORE.RESTR>
0

>  <SCORE.RESTR.CAVITY>
0

>  <SCORE.RESTR.norm>
0

>  <SCORE.SYSTEM>
0

>  <SCORE.SYSTEM.CONST>
0

>  <SCORE.SYSTEM.DIHEDRAL>
0

>  <SCORE.SYSTEM.SOLV>
0

>  <SCORE.SYSTEM.norm>
0

>  <SCORE.heavy>
27

>  <SCORE.norm>
-0.401586

>  <RMSD>
5.788

$$$$
ligand
 OpenBabel11021811483D
libRbt.so/2013.1/901 2013/11/27
 27 29  0  0  0  0  0  0  0  0999 V2000
   47.1130   58.1114   27.0265 N   0  0  0  0  0  0  0  0  0  0  0  0
   47.2386   57.9992   28.4779 C   0  0  2  0  0  0  0  0  0  0  0  0
   45.9978   58.4577   29.2471 C   0  0  0  0  0  0  0  0  0  0  0  0
   45.2697   59.2433   28.7377 O   0  0  0  0  0  0  0  0  0  0  0  0
   48.5501   58.5709   29.0560 C   0  0  0  0  0  0  0  0  0  0  0  0
   48.9576   58.2224   30.5146 C   0  0  0  0  0  0  0  0  0  0  0  0
   48.1201   58.9040   31.6292 C   0  0  2  0  0  0  0  0  0  0  0  0
   48.3673   60.3425   31.7281 N   0  0  0  0  0  0  0  0  0  0  0  0
   48.2479   58.1652   32.9971 C   0  0  0  0  0  0  0  0  0  0  0  0
   47.6179   56.7385   33.1382 C   0  0  1  0  0  0  0  0  0  0  0  0
   48.3849   55.6854   33.7939 O   0  0  0  0  0  0  0  0  0  0  0  0
   46.2083   56.6550   33.7878 C   0  0  1  0  0  0  0  0  0  0  0  0
   45.1076   57.2343   33.0749 O   0  0  0  0  0  0  0  0  0  0  0  0
   46.0883   55.1924   34.3172 C   0  0  1  0  0  0  0  0  0  0  0  0
   45.1973   54.3225   33.6611 O   0  0  0  0  0  0  0  0  0  0  0  0
   47.5521   54.7698   34.4765 C   0  0  2  0  0  0  0  0  0  0  0  0
   45.4958   57.6257   30.2676 O   0  0  0  0  0  0  0  0  0  0  0  0
   45.9314   53.7237   39.5525 N   0  0  0  0  0  0  0  0  0  0  0  0
   45.1464   53.7373   38.3939 C   0  0  0  0  0  0  0  0  0  0  0  0
   45.7553   54.0426   37.1012 N   0  0  0  0  0  0  0  0  0  0  0  0
   47.0950   54.3142   37.0199 C   0  0  0  0  0  0  0  0  0  0  0  0
   47.8775   54.3002   38.1911 C   0  0  0  0  0  0  0  0  0  0  0  0
   47.2698   53.9966   39.4792 C   0  0  0  0  0  0  0  0  0  0  0  0
   48.0812   53.9807   40.6968 N   0  0  0  0  0  0  0  0  0  0  0  0
   49.2355   54.6179   37.8228 N   0  0  0  0  0  0  0  0  0  0  0  0
   49.2653   54.8258   36.4237 C   0  0  0  0  0  0  0  0  0  0  0  0
   47.9500   54.6403   35.9082 N   0  0  0  0  0  0  0  0  0  0  0  0
  2  1  1  6  0  0  0
  2  3  1  0  0  0  0
  2  5  1  0  0  0  0
  3  4  1  0  0  0  0
  3 17  1  0  0  0  0
  5  6  1  0  0  0  0
  7  6  1  6  0  0  0
  7  8  1  0  0  0  0
  7  9  1  0  0  0  0
 10  9  1  1  0  0  0
 10 11  1  0  0  0  0
 10 12  1  0  0  0  0
 11 16  1  0  0  0  0
 12 13  1  6  0  0  0
 12 14  1  0  0  0  0
 14 15  1  6  0  0  0
 14 16  1  0  0  0  0
 16 27  1  1  0  0  0
 18 19  2  0  0  0  0
 18 23  1  0  0  0  0
 19 20  1  0  0  0  0
 20 21  2  0  0  0  0
 21 22  1  0  0  0  0
 21 27  1  0  0  0  0
 22 23  2  0  0  0  0
 22 25  1  0  0  0  0
 23 24  1  0  0  0  0
 25 26  2  0  0  0  0
 26 27  1  0  0  0  0
M  END
>  <CHROM.1>
-25.10914518,-165.74229901,-72.16895012,-70.15261400,-68.46605818,135.43950657
151.06027694,47.11756018,56.29416508,33.81705772,1.58835972,-0.34591989,-1.10265903

>  <Name>
ligand

>  <RI>
0

>  <Rbt.Current_Directory>
/home/itssahil/PROJECTS/Mol_Feturizer/New_Systems/rnas/3GX2

>  <Rbt.Executable>
rbdock ($Id: //depot/dev/client3/rdock/2013.1/src/exe/rbdock.cxx#4 $)

>  <Rbt.Library>
libRbt.so (2013.1, Build901 2013/11/27)

>  <Rbt.Parameter_File>
/export/apps/rDock/src/rDock_2013.1_src/data/scripts/dock_solv.prm

>  <Rbt.Receptor>
prm/pocket_docking_8.prm

>  <SCORE>
-13.5319

>  <SCORE.INTER>
-12.4565

>  <SCORE.INTER.CONST>
1

>  <SCORE.INTER.POLAR>
0

>  <SCORE.INTER.ROT>
7

>  <SCORE.INTER.SOLV>
18.8597

>  <SCORE.INTER.VDW>
-22.8575

>  <SCORE.INTER.norm>
-0.46135

>  <SCORE.INTRA>
-1.0755

>  <SCORE.INTRA.DIHEDRAL>
-2.99984

>  <SCORE.INTRA.DIHEDRAL.0>
13.9704

>  <SCORE.INTRA.POLAR>
0

>  <SCORE.INTRA.POLAR.0>
0

>  <SCORE.INTRA.REPUL>
0

>  <SCORE.INTRA.REPUL.0>
0

>  <SCORE.INTRA.SOLV>
1.5938

>  <SCORE.INTRA.SOLV.lig_0>
-70.9758

>  <SCORE.INTRA.VDW>
-0.372479

>  <SCORE.INTRA.VDW.0>
-2.70686

>  <SCORE.INTRA.norm>
-0.0398332

>  <SCORE.RESTR>
0

>  <SCORE.RESTR.CAVITY>
0

>  <SCORE.RESTR.norm>
0

>  <SCORE.SYSTEM>
0

>  <SCORE.SYSTEM.CONST>
0

>  <SCORE.SYSTEM.DIHEDRAL>
0

>  <SCORE.SYSTEM.SOLV>
0

>  <SCORE.SYSTEM.norm>
0

>  <SCORE.heavy>
27

>  <SCORE.norm>
-0.501183

>  <RMSD>
5.823

$$$$
ligand
 OpenBabel11021811473D
libRbt.so/2013.1/901 2013/11/27
 27 29  0  0  0  0  0  0  0  0999 V2000
   48.8196   54.6550   33.8183 N   0  0  0  0  0  0  0  0  0  0  0  0
   47.8014   54.6383   34.8661 C   0  0  2  0  0  0  0  0  0  0  0  0
   47.9207   53.4566   35.8309 C   0  0  0  0  0  0  0  0  0  0  0  0
   48.2968   53.6601   36.9372 O   0  0  0  0  0  0  0  0  0  0  0  0
   46.3592   54.8625   34.3650 C   0  0  0  0  0  0  0  0  0  0  0  0
   45.7830   53.9371   33.2575 C   0  0  0  0  0  0  0  0  0  0  0  0
   44.3349   54.2557   32.7993 C   0  0  2  0  0  0  0  0  0  0  0  0
   43.3565   54.1366   33.8802 N   0  0  0  0  0  0  0  0  0  0  0  0
   43.9336   53.4596   31.5193 C   0  0  0  0  0  0  0  0  0  0  0  0
   44.5846   53.8623   30.1532 C   0  0  1  0  0  0  0  0  0  0  0  0
   44.1671   55.1007   29.5056 O   0  0  0  0  0  0  0  0  0  0  0  0
   46.1376   53.8998   30.1000 C   0  0  1  0  0  0  0  0  0  0  0  0
   46.8422   52.6593   30.2411 O   0  0  0  0  0  0  0  0  0  0  0  0
   46.4828   54.8408   28.9044 C   0  0  1  0  0  0  0  0  0  0  0  0
   47.0382   54.2633   27.7473 O   0  0  0  0  0  0  0  0  0  0  0  0
   45.2182   55.6950   28.7709 C   0  0  2  0  0  0  0  0  0  0  0  0
   47.1583   52.3000   35.5724 O   0  0  0  0  0  0  0  0  0  0  0  0
   46.8962   59.0287   32.7152 N   0  0  0  0  0  0  0  0  0  0  0  0
   46.8500   57.6302   32.7448 C   0  0  0  0  0  0  0  0  0  0  0  0
   46.3649   56.8895   31.5824 N   0  0  0  0  0  0  0  0  0  0  0  0
   45.9562   57.5614   30.4614 C   0  0  0  0  0  0  0  0  0  0  0  0
   46.0041   58.9690   30.4407 C   0  0  0  0  0  0  0  0  0  0  0  0
   46.4870   59.7065   31.5997 C   0  0  0  0  0  0  0  0  0  0  0  0
   46.5385   61.1688   31.5798 N   0  0  0  0  0  0  0  0  0  0  0  0
   45.5206   59.4119   29.1558 N   0  0  0  0  0  0  0  0  0  0  0  0
   45.1789   58.2628   28.4044 C   0  0  0  0  0  0  0  0  0  0  0  0
   45.4432   57.1073   29.1948 N   0  0  0  0  0  0  0  0  0  0  0  0
  2  1  1  6  0  0  0
  2  3  1  0  0  0  0
  2  5  1  0  0  0  0
  3  4  1  0  0  0  0
  3 17  1  0  0  0  0
  5  6  1  0  0  0  0
  7  6  1  1  0  0  0
  7  8  1  0  0  0  0
  7  9  1  0  0  0  0
 10  9  1  1  0  0  0
 10 11  1  0  0  0  0
 10 12  1  0  0  0  0
 11 16  1  0  0  0  0
 12 13  1  6  0  0  0
 12 14  1  0  0  0  0
 14 15  1  6  0  0  0
 14 16  1  0  0  0  0
 16 27  1  1  0  0  0
 18 19  2  0  0  0  0
 18 23  1  0  0  0  0
 19 20  1  0  0  0  0
 20 21  2  0  0  0  0
 21 22  1  0  0  0  0
 21 27  1  0  0  0  0
 22 23  2  0  0  0  0
 22 25  1  0  0  0  0
 23 24  1  0  0  0  0
 25 26  2  0  0  0  0
 26 27  1  0  0  0  0
M  END
>  <CHROM.1>
108.22816080,55.30424695,-178.89186625,-61.25357450,-71.52150764,-72.73455007
68.04722101,46.14593215,55.65193179,31.74496806,-0.98093456,-1.22551422,-0.33353103

>  <Name>
ligand

>  <RI>
0

>  <Rbt.Current_Directory>
/home/itssahil/PROJECTS/Mol_Feturizer/New_Systems/rnas/3GX2

>  <Rbt.Executable>
rbdock ($Id: //depot/dev/client3/rdock/2013.1/src/exe/rbdock.cxx#4 $)

>  <Rbt.Library>
libRbt.so (2013.1, Build901 2013/11/27)

>  <Rbt.Parameter_File>
/export/apps/rDock/src/rDock_2013.1_src/data/scripts/dock_solv.prm

>  <Rbt.Receptor>
prm/pocket_docking_5.prm

>  <SCORE>
-6.59254

>  <SCORE.INTER>
-1.58817

>  <SCORE.INTER.CONST>
1

>  <SCORE.INTER.POLAR>
0

>  <SCORE.INTER.ROT>
7

>  <SCORE.INTER.SOLV>
16.9066

>  <SCORE.INTER.VDW>
-14.961

>  <SCORE.INTER.norm>
-0.058821

>  <SCORE.INTRA>
-5.00437

>  <SCORE.INTRA.DIHEDRAL>
-8.23092

>  <SCORE.INTRA.DIHEDRAL.0>
13.9704

>  <SCORE.INTRA.POLAR>
0

>  <SCORE.INTRA.POLAR.0>
0

>  <SCORE.INTRA.REPUL>
0

>  <SCORE.INTRA.REPUL.0>
0

>  <SCORE.INTRA.SOLV>
0.577692

>  <SCORE.INTRA.SOLV.lig_0>
-70.9758

>  <SCORE.INTRA.VDW>
-1.17776

>  <SCORE.INTRA.VDW.0>
-2.70686

>  <SCORE.INTRA.norm>
-0.185347

>  <SCORE.RESTR>
0

>  <SCORE.RESTR.CAVITY>
0

>  <SCORE.RESTR.norm>
0

>  <SCORE.SYSTEM>
0

>  <SCORE.SYSTEM.CONST>
0

>  <SCORE.SYSTEM.DIHEDRAL>
0

>  <SCORE.SYSTEM.SOLV>
0

>  <SCORE.SYSTEM.norm>
0

>  <SCORE.heavy>
27

>  <SCORE.norm>
-0.244168

>  <RMSD>
5.824

$$$$
ligand
 OpenBabel11021811483D
libRbt.so/2013.1/901 2013/11/27
 27 29  0  0  0  0  0  0  0  0999 V2000
   46.3392   58.9735   31.0258 N   0  0  0  0  0  0  0  0  0  0  0  0
   47.7383   58.7798   31.3998 C   0  0  2  0  0  0  0  0  0  0  0  0
   48.4717   60.0743   31.7571 C   0  0  0  0  0  0  0  0  0  0  0  0
   47.9464   61.1109   31.5198 O   0  0  0  0  0  0  0  0  0  0  0  0
   48.5419   57.8786   30.4390 C   0  0  0  0  0  0  0  0  0  0  0  0
   48.7054   56.3681   30.7661 C   0  0  0  0  0  0  0  0  0  0  0  0
   47.4095   55.5178   30.6881 C   0  0  2  0  0  0  0  0  0  0  0  0
   46.1969   56.3068   30.9051 N   0  0  0  0  0  0  0  0  0  0  0  0
   47.4834   54.2476   31.5905 C   0  0  0  0  0  0  0  0  0  0  0  0
   47.7297   54.4341   33.1257 C   0  0  1  0  0  0  0  0  0  0  0  0
   46.6657   54.9920   33.9527 O   0  0  0  0  0  0  0  0  0  0  0  0
   48.2222   53.1882   33.9138 C   0  0  1  0  0  0  0  0  0  0  0  0
   49.5288   52.6801   33.6138 O   0  0  0  0  0  0  0  0  0  0  0  0
   47.8347   53.4651   35.3995 C   0  0  1  0  0  0  0  0  0  0  0  0
   48.8706   53.7294   36.3149 O   0  0  0  0  0  0  0  0  0  0  0  0
   46.6891   54.4735   35.2674 C   0  0  2  0  0  0  0  0  0  0  0  0
   49.4685   60.0278   32.7521 O   0  0  0  0  0  0  0  0  0  0  0  0
   42.2452   51.8683   33.5491 N   0  0  0  0  0  0  0  0  0  0  0  0
   43.3475   52.2671   32.7844 C   0  0  0  0  0  0  0  0  0  0  0  0
   44.4640   52.9644   33.4185 N   0  0  0  0  0  0  0  0  0  0  0  0
   44.4356   53.2277   34.7620 C   0  0  0  0  0  0  0  0  0  0  0  0
   43.3216   52.8245   35.5240 C   0  0  0  0  0  0  0  0  0  0  0  0
   42.2089   52.1303   34.8912 C   0  0  0  0  0  0  0  0  0  0  0  0
   41.0511   51.7099   35.6813 N   0  0  0  0  0  0  0  0  0  0  0  0
   43.5497   53.2239   36.8912 N   0  0  0  0  0  0  0  0  0  0  0  0
   44.8060   53.8720   36.9472 C   0  0  0  0  0  0  0  0  0  0  0  0
   45.3710   53.8826   35.6392 N   0  0  0  0  0  0  0  0  0  0  0  0
  2  1  1  6  0  0  0
  2  3  1  0  0  0  0
  2  5  1  0  0  0  0
  3  4  1  0  0  0  0
  3 17  1  0  0  0  0
  5  6  1  0  0  0  0
  7  6  1  1  0  0  0
  7  8  1  0  0  0  0
  7  9  1  0  0  0  0
 10  9  1  6  0  0  0
 10 11  1  0  0  0  0
 10 12  1  0  0  0  0
 11 16  1  0  0  0  0
 12 13  1  1  0  0  0
 12 14  1  0  0  0  0
 14 15  1  1  0  0  0
 14 16  1  0  0  0  0
 16 27  1  6  0  0  0
 18 19  2  0  0  0  0
 18 23  1  0  0  0  0
 19 20  1  0  0  0  0
 20 21  2  0  0  0  0
 21 22  1  0  0  0  0
 21 27  1  0  0  0  0
 22 23  2  0  0  0  0
 22 25  1  0  0  0  0
 23 24  1  0  0  0  0
 25 26  2  0  0  0  0
 26 27  1  0  0  0  0
M  END
>  <CHROM.1>
-11.03252013,-95.70132699,67.76474090,-25.47550651,58.41373217,70.94965515
32.28236820,46.34959574,55.05545321,33.47183730,0.99561719,-0.14258082,-0.63126433

>  <Name>
ligand

>  <RI>
0

>  <Rbt.Current_Directory>
/home/itssahil/PROJECTS/Mol_Feturizer/New_Systems/rnas/3GX2

>  <Rbt.Executable>
rbdock ($Id: //depot/dev/client3/rdock/2013.1/src/exe/rbdock.cxx#4 $)

>  <Rbt.Library>
libRbt.so (2013.1, Build901 2013/11/27)

>  <Rbt.Parameter_File>
/export/apps/rDock/src/rDock_2013.1_src/data/scripts/dock_solv.prm

>  <Rbt.Receptor>
prm/pocket_docking_7.prm

>  <SCORE>
-6.94129

>  <SCORE.INTER>
-8.44171

>  <SCORE.INTER.CONST>
1

>  <SCORE.INTER.POLAR>
0

>  <SCORE.INTER.ROT>
7

>  <SCORE.INTER.SOLV>
9.74827

>  <SCORE.INTER.VDW>
-17.1439

>  <SCORE.INTER.norm>
-0.312656

>  <SCORE.INTRA>
1.50043

>  <SCORE.INTRA.DIHEDRAL>
-2.02994

>  <SCORE.INTRA.DIHEDRAL.0>
13.9704

>  <SCORE.INTRA.POLAR>
0

>  <SCORE.INTRA.POLAR.0>
0

>  <SCORE.INTRA.REPUL>
0

>  <SCORE.INTRA.REPUL.0>
0

>  <SCORE.INTRA.SOLV>
4.89211

>  <SCORE.INTRA.SOLV.lig_0>
-70.9758

>  <SCORE.INTRA.VDW>
0.0693453

>  <SCORE.INTRA.VDW.0>
-2.70686

>  <SCORE.INTRA.norm>
0.0555714

>  <SCORE.RESTR>
0

>  <SCORE.RESTR.CAVITY>
0

>  <SCORE.RESTR.norm>
0

>  <SCORE.SYSTEM>
0

>  <SCORE.SYSTEM.CONST>
0

>  <SCORE.SYSTEM.DIHEDRAL>
0

>  <SCORE.SYSTEM.SOLV>
0

>  <SCORE.SYSTEM.norm>
0

>  <SCORE.heavy>
27

>  <SCORE.norm>
-0.257085

>  <RMSD>
5.829

$$$$
ligand
 OpenBabel11021811473D
libRbt.so/2013.1/901 2013/11/27
 27 29  0  0  0  0  0  0  0  0999 V2000
   43.7985   55.4470   32.5670 N   0  0  0  0  0  0  0  0  0  0  0  0
   44.1241   56.6868   31.8657 C   0  0  2  0  0  0  0  0  0  0  0  0
   44.5506   56.4847   30.4102 C   0  0  0  0  0  0  0  0  0  0  0  0
   44.0544   57.1614   29.5719 O   0  0  0  0  0  0  0  0  0  0  0  0
   45.0608   57.6371   32.6408 C   0  0  0  0  0  0  0  0  0  0  0  0
   45.1635   59.1269   32.2105 C   0  0  0  0  0  0  0  0  0  0  0  0
   46.3204   59.4677   31.2338 C   0  0  2  0  0  0  0  0  0  0  0  0
   46.2269   58.7443   29.9658 N   0  0  0  0  0  0  0  0  0  0  0  0
   47.7198   59.3390   31.9107 C   0  0  0  0  0  0  0  0  0  0  0  0
   48.1255   57.9605   32.5333 C   0  0  1  0  0  0  0  0  0  0  0  0
   47.8807   56.7393   31.7744 O   0  0  0  0  0  0  0  0  0  0  0  0
   49.5903   57.8205   33.0339 C   0  0  1  0  0  0  0  0  0  0  0  0
   49.9925   58.6155   34.1570 O   0  0  0  0  0  0  0  0  0  0  0  0
   49.8731   56.2862   33.0458 C   0  0  1  0  0  0  0  0  0  0  0  0
   50.0017   55.6471   34.2932 O   0  0  0  0  0  0  0  0  0  0  0  0
   48.8513   55.7466   32.0401 C   0  0  2  0  0  0  0  0  0  0  0  0
   45.8034   55.8924   30.1544 O   0  0  0  0  0  0  0  0  0  0  0  0
   49.3084   51.7136   28.4328 N   0  0  0  0  0  0  0  0  0  0  0  0
   48.5076   51.7428   29.5802 C   0  0  0  0  0  0  0  0  0  0  0  0
   48.5100   52.9212   30.4442 N   0  0  0  0  0  0  0  0  0  0  0  0
   49.2939   53.9999   30.1326 C   0  0  0  0  0  0  0  0  0  0  0  0
   50.0982   53.9615   28.9769 C   0  0  0  0  0  0  0  0  0  0  0  0
   50.0959   52.7865   28.1168 C   0  0  0  0  0  0  0  0  0  0  0  0
   50.9302   52.7451   26.9152 N   0  0  0  0  0  0  0  0  0  0  0  0
   50.8131   55.2115   28.8906 N   0  0  0  0  0  0  0  0  0  0  0  0
   50.4364   56.0011   30.0024 C   0  0  0  0  0  0  0  0  0  0  0  0
   49.4949   55.2692   30.7821 N   0  0  0  0  0  0  0  0  0  0  0  0
  2  1  1  1  0  0  0
  2  3  1  0  0  0  0
  2  5  1  0  0  0  0
  3  4  1  0  0  0  0
  3 17  1  0  0  0  0
  5  6  1  0  0  0  0
  7  6  1  1  0  0  0
  7  8  1  0  0  0  0
  7  9  1  0  0  0  0
 10  9  1  6  0  0  0
 10 11  1  0  0  0  0
 10 12  1  0  0  0  0
 11 16  1  0  0  0  0
 12 13  1  1  0  0  0
 12 14  1  0  0  0  0
 14 15  1  1  0  0  0
 14 16  1  0  0  0  0
 16 27  1  6  0  0  0
 18 19  2  0  0  0  0
 18 23  1  0  0  0  0
 19 20  1  0  0  0  0
 20 21  2  0  0  0  0
 21 22  1  0  0  0  0
 21 27  1  0  0  0  0
 22 23  2  0  0  0  0
 22 25  1  0  0  0  0
 23 24  1  0  0  0  0
 25 26  2  0  0  0  0
 26 27  1  0  0  0  0
M  END
>  <CHROM.1>
131.86715411,-162.79139387,-94.26642841,60.60768475,58.02956968,45.31991658
-107.19913303,47.90249984,56.02970460,31.00203777,2.20702702,-0.23120222
0.72829304

>  <Name>
ligand

>  <RI>
0

>  <Rbt.Current_Directory>
/home/itssahil/PROJECTS/Mol_Feturizer/New_Systems/rnas/3GX2

>  <Rbt.Executable>
rbdock ($Id: //depot/dev/client3/rdock/2013.1/src/exe/rbdock.cxx#4 $)

>  <Rbt.Library>
libRbt.so (2013.1, Build901 2013/11/27)

>  <Rbt.Parameter_File>
/export/apps/rDock/src/rDock_2013.1_src/data/scripts/dock_solv.prm

>  <Rbt.Receptor>
prm/pocket_docking_4.prm

>  <SCORE>
-10.428

>  <SCORE.INTER>
-10.9826

>  <SCORE.INTER.CONST>
1

>  <SCORE.INTER.POLAR>
0

>  <SCORE.INTER.ROT>
7

>  <SCORE.INTER.SOLV>
12.2039

>  <SCORE.INTER.VDW>
-19.6564

>  <SCORE.INTER.norm>
-0.406765

>  <SCORE.INTRA>
0.554652

>  <SCORE.INTRA.DIHEDRAL>
-3.72869

>  <SCORE.INTRA.DIHEDRAL.0>
13.9704

>  <SCORE.INTRA.POLAR>
0

>  <SCORE.INTRA.POLAR.0>
0

>  <SCORE.INTRA.REPUL>
0

>  <SCORE.INTRA.REPUL.0>
0

>  <SCORE.INTRA.SOLV>
5.65354

>  <SCORE.INTRA.SOLV.lig_0>
-70.9758

>  <SCORE.INTRA.VDW>
-0.40777

>  <SCORE.INTRA.VDW.0>
-2.70686

>  <SCORE.INTRA.norm>
0.0205427

>  <SCORE.RESTR>
0

>  <SCORE.RESTR.CAVITY>
0

>  <SCORE.RESTR.norm>
0

>  <SCORE.SYSTEM>
0

>  <SCORE.SYSTEM.CONST>
0

>  <SCORE.SYSTEM.DIHEDRAL>
0

>  <SCORE.SYSTEM.SOLV>
0

>  <SCORE.SYSTEM.norm>
0

>  <SCORE.heavy>
27

>  <SCORE.norm>
-0.386222

>  <RMSD>
5.842

$$$$
ligand
 OpenBabel11021811473D
libRbt.so/2013.1/901 2013/11/27
 27 29  0  0  0  0  0  0  0  0999 V2000
   43.8592   54.7857   34.3653 N   0  0  0  0  0  0  0  0  0  0  0  0
   44.8340   54.2276   33.4308 C   0  0  2  0  0  0  0  0  0  0  0  0
   44.2077   53.5099   32.2333 C   0  0  0  0  0  0  0  0  0  0  0  0
   43.2326   52.8572   32.4065 O   0  0  0  0  0  0  0  0  0  0  0  0
   45.9680   53.4168   34.0924 C   0  0  0  0  0  0  0  0  0  0  0  0
   46.9318   54.1226   35.0865 C   0  0  0  0  0  0  0  0  0  0  0  0
   47.9314   55.1287   34.4563 C   0  0  2  0  0  0  0  0  0  0  0  0
   48.9475   55.5899   35.4022 N   0  0  0  0  0  0  0  0  0  0  0  0
   47.2057   56.2963   33.7192 C   0  0  0  0  0  0  0  0  0  0  0  0
   48.0757   57.3976   33.0244 C   0  0  1  0  0  0  0  0  0  0  0  0
   49.2744   56.9998   32.2949 O   0  0  0  0  0  0  0  0  0  0  0  0
   47.3388   58.3699   32.0614 C   0  0  1  0  0  0  0  0  0  0  0  0
   46.3793   59.2726   32.6269 O   0  0  0  0  0  0  0  0  0  0  0  0
   48.4484   58.9297   31.1182 C   0  0  1  0  0  0  0  0  0  0  0  0
   48.8187   60.2800   31.2613 O   0  0  0  0  0  0  0  0  0  0  0  0
   49.5346   57.8524   31.1980 C   0  0  2  0  0  0  0  0  0  0  0  0
   44.4779   54.0011   30.9405 O   0  0  0  0  0  0  0  0  0  0  0  0
   47.8494   57.2655   26.0694 N   0  0  0  0  0  0  0  0  0  0  0  0
   47.4277   58.2221   26.9999 C   0  0  0  0  0  0  0  0  0  0  0  0
   47.9935   58.2314   28.3470 N   0  0  0  0  0  0  0  0  0  0  0  0
   48.9384   57.3059   28.7017 C   0  0  0  0  0  0  0  0  0  0  0  0
   49.3559   56.3455   27.7597 C   0  0  0  0  0  0  0  0  0  0  0  0
   48.7910   56.3363   26.4175 C   0  0  0  0  0  0  0  0  0  0  0  0
   49.2242   55.3399   25.4372 N   0  0  0  0  0  0  0  0  0  0  0  0
   50.3442   55.5045   28.3897 N   0  0  0  0  0  0  0  0  0  0  0  0
   50.5171   55.9627   29.7170 C   0  0  0  0  0  0  0  0  0  0  0  0
   49.6568   57.0786   29.9287 N   0  0  0  0  0  0  0  0  0  0  0  0
  2  1  1  1  0  0  0
  2  3  1  0  0  0  0
  2  5  1  0  0  0  0
  3  4  1  0  0  0  0
  3 17  1  0  0  0  0
  5  6  1  0  0  0  0
  7  6  1  1  0  0  0
  7  8  1  0  0  0  0
  7  9  1  0  0  0  0
 10  9  1  6  0  0  0
 10 11  1  0  0  0  0
 10 12  1  0  0  0  0
 11 16  1  0  0  0  0
 12 13  1  1  0  0  0
 12 14  1  0  0  0  0
 14 15  1  1  0  0  0
 14 16  1  0  0  0  0
 16 27  1  6  0  0  0
 18 19  2  0  0  0  0
 18 23  1  0  0  0  0
 19 20  1  0  0  0  0
 20 21  2  0  0  0  0
 21 22  1  0  0  0  0
 21 27  1  0  0  0  0
 22 23  2  0  0  0  0
 22 25  1  0  0  0  0
 23 24  1  0  0  0  0
 25 26  2  0  0  0  0
 26 27  1  0  0  0  0
M  END
>  <CHROM.1>
-38.51536013,-61.84224328,-71.05181272,-170.56759946,-179.84855980,40.62016958
126.86369240,47.55210260,56.31212347,31.09798881,2.31927516,0.82753082,1.39373630

>  <Name>
ligand

>  <RI>
0

>  <Rbt.Current_Directory>
/home/itssahil/PROJECTS/Mol_Feturizer/New_Systems/rnas/3GX2

>  <Rbt.Executable>
rbdock ($Id: //depot/dev/client3/rdock/2013.1/src/exe/rbdock.cxx#4 $)

>  <Rbt.Library>
libRbt.so (2013.1, Build901 2013/11/27)

>  <Rbt.Parameter_File>
/export/apps/rDock/src/rDock_2013.1_src/data/scripts/dock_solv.prm

>  <Rbt.Receptor>
prm/pocket_docking_5.prm

>  <SCORE>
-10.314

>  <SCORE.INTER>
-8.14405

>  <SCORE.INTER.CONST>
1

>  <SCORE.INTER.POLAR>
0

>  <SCORE.INTER.ROT>
7

>  <SCORE.INTER.SOLV>
14.9285

>  <SCORE.INTER.VDW>
-18.6722

>  <SCORE.INTER.norm>
-0.301631

>  <SCORE.INTRA>
-2.17

>  <SCORE.INTRA.DIHEDRAL>
-7.53629

>  <SCORE.INTRA.DIHEDRAL.0>
13.9704

>  <SCORE.INTRA.POLAR>
0

>  <SCORE.INTRA.POLAR.0>
0

>  <SCORE.INTRA.REPUL>
0

>  <SCORE.INTRA.REPUL.0>
0

>  <SCORE.INTRA.SOLV>
1.60637

>  <SCORE.INTRA.SOLV.lig_0>
-70.9758

>  <SCORE.INTRA.VDW>
0.794963

>  <SCORE.INTRA.VDW.0>
-2.70686

>  <SCORE.INTRA.norm>
-0.0803703

>  <SCORE.RESTR>
0

>  <SCORE.RESTR.CAVITY>
0

>  <SCORE.RESTR.norm>
0

>  <SCORE.SYSTEM>
0

>  <SCORE.SYSTEM.CONST>
0

>  <SCORE.SYSTEM.DIHEDRAL>
0

>  <SCORE.SYSTEM.SOLV>
0

>  <SCORE.SYSTEM.norm>
0

>  <SCORE.heavy>
27

>  <SCORE.norm>
-0.382002

>  <RMSD>
5.844

$$$$
ligand
 OpenBabel11021811473D
libRbt.so/2013.1/901 2013/11/27
 27 29  0  0  0  0  0  0  0  0999 V2000
   47.7408   57.8856   26.4680 N   0  0  0  0  0  0  0  0  0  0  0  0
   48.0154   58.1130   27.8850 C   0  0  2  0  0  0  0  0  0  0  0  0
   49.1307   57.2321   28.4518 C   0  0  0  0  0  0  0  0  0  0  0  0
   49.9962   56.8709   27.7256 O   0  0  0  0  0  0  0  0  0  0  0  0
   46.7624   58.1506   28.7849 C   0  0  0  0  0  0  0  0  0  0  0  0
   46.8798   58.6966   30.2351 C   0  0  0  0  0  0  0  0  0  0  0  0
   45.6560   58.4378   31.1536 C   0  0  2  0  0  0  0  0  0  0  0  0
   45.7367   59.1557   32.4256 N   0  0  0  0  0  0  0  0  0  0  0  0
   45.3612   56.9158   31.3269 C   0  0  0  0  0  0  0  0  0  0  0  0
   46.4888   55.9969   31.9070 C   0  0  1  0  0  0  0  0  0  0  0  0
   46.8753   56.1443   33.3056 O   0  0  0  0  0  0  0  0  0  0  0  0
   46.3158   54.4648   31.7105 C   0  0  1  0  0  0  0  0  0  0  0  0
   46.3772   53.9504   30.3738 O   0  0  0  0  0  0  0  0  0  0  0  0
   47.1941   53.8088   32.8207 C   0  0  1  0  0  0  0  0  0  0  0  0
   48.3668   53.1381   32.4261 O   0  0  0  0  0  0  0  0  0  0  0  0
   47.2948   54.9190   33.8715 C   0  0  2  0  0  0  0  0  0  0  0  0
   49.3774   57.2716   29.8387 O   0  0  0  0  0  0  0  0  0  0  0  0
   47.4869   53.2520   39.0360 N   0  0  0  0  0  0  0  0  0  0  0  0
   48.5624   53.4294   38.1580 C   0  0  0  0  0  0  0  0  0  0  0  0
   48.3232   53.8879   36.7914 N   0  0  0  0  0  0  0  0  0  0  0  0
   47.0472   54.1467   36.3671 C   0  0  0  0  0  0  0  0  0  0  0  0
   45.9704   53.9638   37.2565 C   0  0  0  0  0  0  0  0  0  0  0  0
   46.2094   53.5061   38.6181 C   0  0  0  0  0  0  0  0  0  0  0  0
   45.0921   53.3165   39.5438 N   0  0  0  0  0  0  0  0  0  0  0  0
   44.7543   54.3030   36.5586 N   0  0  0  0  0  0  0  0  0  0  0  0
   45.1053   54.6884   35.2434 C   0  0  0  0  0  0  0  0  0  0  0  0
   46.5207   54.6001   35.1059 N   0  0  0  0  0  0  0  0  0  0  0  0
  2  1  1  6  0  0  0
  2  3  1  0  0  0  0
  2  5  1  0  0  0  0
  3  4  1  0  0  0  0
  3 17  1  0  0  0  0
  5  6  1  0  0  0  0
  7  6  1  1  0  0  0
  7  8  1  0  0  0  0
  7  9  1  0  0  0  0
 10  9  1  1  0  0  0
 10 11  1  0  0  0  0
 10 12  1  0  0  0  0
 11 16  1  0  0  0  0
 12 13  1  6  0  0  0
 12 14  1  0  0  0  0
 14 15  1  6  0  0  0
 14 16  1  0  0  0  0
 16 27  1  1  0  0  0
 18 19  2  0  0  0  0
 18 23  1  0  0  0  0
 19 20  1  0  0  0  0
 20 21  2  0  0  0  0
 21 22  1  0  0  0  0
 21 27  1  0  0  0  0
 22 23  2  0  0  0  0
 22 25  1  0  0  0  0
 23 24  1  0  0  0  0
 25 26  2  0  0  0  0
 26 27  1  0  0  0  0
M  END
>  <CHROM.1>
29.21421555,-166.26957277,-168.23067365,-170.77306493,58.00781445,69.03702819
-133.68437575,47.02693081,55.59542393,32.95301927,-1.39255338,-0.70609564
2.09551485

>  <Name>
ligand

>  <RI>
0

>  <Rbt.Current_Directory>
/home/itssahil/PROJECTS/Mol_Feturizer/New_Systems/rnas/3GX2

>  <Rbt.Executable>
rbdock ($Id: //depot/dev/client3/rdock/2013.1/src/exe/rbdock.cxx#4 $)

>  <Rbt.Library>
libRbt.so (2013.1, Build901 2013/11/27)

>  <Rbt.Parameter_File>
/export/apps/rDock/src/rDock_2013.1_src/data/scripts/dock_solv.prm

>  <Rbt.Receptor>
prm/pocket_docking_6.prm

>  <SCORE>
-8.55867

>  <SCORE.INTER>
-5.7805

>  <SCORE.INTER.CONST>
1

>  <SCORE.INTER.POLAR>
0

>  <SCORE.INTER.ROT>
7

>  <SCORE.INTER.SOLV>
17.6959

>  <SCORE.INTER.VDW>
-18.019

>  <SCORE.INTER.norm>
-0.214093

>  <SCORE.INTRA>
-2.77817

>  <SCORE.INTRA.DIHEDRAL>
-7.36313

>  <SCORE.INTRA.DIHEDRAL.0>
13.9704

>  <SCORE.INTRA.POLAR>
0

>  <SCORE.INTRA.POLAR.0>
0

>  <SCORE.INTRA.REPUL>
0

>  <SCORE.INTRA.REPUL.0>
0

>  <SCORE.INTRA.SOLV>
0.385859

>  <SCORE.INTRA.SOLV.lig_0>
-70.9758

>  <SCORE.INTRA.VDW>
0.710466

>  <SCORE.INTRA.VDW.0>
-2.70686

>  <SCORE.INTRA.norm>
-0.102895

>  <SCORE.RESTR>
0

>  <SCORE.RESTR.CAVITY>
0

>  <SCORE.RESTR.norm>
0

>  <SCORE.SYSTEM>
0

>  <SCORE.SYSTEM.CONST>
0

>  <SCORE.SYSTEM.DIHEDRAL>
0

>  <SCORE.SYSTEM.SOLV>
0

>  <SCORE.SYSTEM.norm>
0

>  <SCORE.heavy>
27

>  <SCORE.norm>
-0.316988

>  <RMSD>
5.853

$$$$
ligand
 OpenBabel11021811473D
libRbt.so/2013.1/901 2013/11/27
 27 29  0  0  0  0  0  0  0  0999 V2000
   46.0130   54.5477   35.3745 N   0  0  0  0  0  0  0  0  0  0  0  0
   46.9951   53.8937   34.5126 C   0  0  2  0  0  0  0  0  0  0  0  0
   48.3912   54.5168   34.5758 C   0  0  0  0  0  0  0  0  0  0  0  0
   48.5955   55.3781   35.3653 O   0  0  0  0  0  0  0  0  0  0  0  0
   46.5148   53.6388   33.0685 C   0  0  0  0  0  0  0  0  0  0  0  0
   46.3088   54.8433   32.1084 C   0  0  0  0  0  0  0  0  0  0  0  0
   45.1597   55.8161   32.4848 C   0  0  2  0  0  0  0  0  0  0  0  0
   44.4698   56.3618   31.3160 N   0  0  0  0  0  0  0  0  0  0  0  0
   45.6237   56.9146   33.4904 C   0  0  0  0  0  0  0  0  0  0  0  0
   46.7922   57.8684   33.0695 C   0  0  1  0  0  0  0  0  0  0  0  0
   48.1080   57.3015   32.7969 O   0  0  0  0  0  0  0  0  0  0  0  0
   46.5231   58.8212   31.8713 C   0  0  1  0  0  0  0  0  0  0  0  0
   45.5431   59.8531   32.0439 O   0  0  0  0  0  0  0  0  0  0  0  0
   47.9346   59.1948   31.3215 C   0  0  1  0  0  0  0  0  0  0  0  0
   48.3916   60.5121   31.5133 O   0  0  0  0  0  0  0  0  0  0  0  0
   48.8050   58.0317   31.8075 C   0  0  2  0  0  0  0  0  0  0  0  0
   49.4811   53.7721   34.0828 O   0  0  0  0  0  0  0  0  0  0  0  0
   48.5698   57.0166   26.4782 N   0  0  0  0  0  0  0  0  0  0  0  0
   47.9462   58.0580   27.1748 C   0  0  0  0  0  0  0  0  0  0  0  0
   48.1207   58.1786   28.6205 N   0  0  0  0  0  0  0  0  0  0  0  0
   48.8958   57.2746   29.2966 C   0  0  0  0  0  0  0  0  0  0  0  0
   49.5184   56.2284   28.5882 C   0  0  0  0  0  0  0  0  0  0  0  0
   49.3434   56.1084   27.1475 C   0  0  0  0  0  0  0  0  0  0  0  0
   49.9902   55.0228   26.4096 N   0  0  0  0  0  0  0  0  0  0  0  0
   50.2630   55.4324   29.5331 N   0  0  0  0  0  0  0  0  0  0  0  0
   50.0827   56.0040   30.8147 C   0  0  0  0  0  0  0  0  0  0  0  0
   49.2409   57.1466   30.6888 N   0  0  0  0  0  0  0  0  0  0  0  0
  2  1  1  6  0  0  0
  2  3  1  0  0  0  0
  2  5  1  0  0  0  0
  3  4  1  0  0  0  0
  3 17  1  0  0  0  0
  5  6  1  0  0  0  0
  7  6  1  6  0  0  0
  7  8  1  0  0  0  0
  7  9  1  0  0  0  0
 10  9  1  6  0  0  0
 10 11  1  0  0  0  0
 10 12  1  0  0  0  0
 11 16  1  0  0  0  0
 12 13  1  1  0  0  0
 12 14  1  0  0  0  0
 14 15  1  1  0  0  0
 14 16  1  0  0  0  0
 16 27  1  6  0  0  0
 18 19  2  0  0  0  0
 18 23  1  0  0  0  0
 19 20  1  0  0  0  0
 20 21  2  0  0  0  0
 21 22  1  0  0  0  0
 21 27  1  0  0  0  0
 22 23  2  0  0  0  0
 22 25  1  0  0  0  0
 23 24  1  0  0  0  0
 25 26  2  0  0  0  0
 26 27  1  0  0  0  0
M  END
>  <CHROM.1>
5.82519557,69.56975340,-66.45858888,-144.59030525,59.22848630,-62.16932685
121.26082056,47.81843501,56.59396205,31.41174429,-2.13564797,0.97781514,-0.79576713

>  <Name>
ligand

>  <RI>
0

>  <Rbt.Current_Directory>
/home/itssahil/PROJECTS/Mol_Feturizer/New_Systems/rnas/3GX2

>  <Rbt.Executable>
rbdock ($Id: //depot/dev/client3/rdock/2013.1/src/exe/rbdock.cxx#4 $)

>  <Rbt.Library>
libRbt.so (2013.1, Build901 2013/11/27)

>  <Rbt.Parameter_File>
/export/apps/rDock/src/rDock_2013.1_src/data/scripts/dock_solv.prm

>  <Rbt.Receptor>
prm/pocket_docking_3.prm

>  <SCORE>
-10.923

>  <SCORE.INTER>
-9.27549

>  <SCORE.INTER.CONST>
1

>  <SCORE.INTER.POLAR>
0

>  <SCORE.INTER.ROT>
7

>  <SCORE.INTER.SOLV>
10.7546

>  <SCORE.INTER.VDW>
-18.0352

>  <SCORE.INTER.norm>
-0.343537

>  <SCORE.INTRA>
-1.65789

>  <SCORE.INTRA.DIHEDRAL>
-5.31471

>  <SCORE.INTRA.DIHEDRAL.0>
13.9704

>  <SCORE.INTRA.POLAR>
0

>  <SCORE.INTRA.POLAR.0>
0

>  <SCORE.INTRA.REPUL>
0

>  <SCORE.INTRA.REPUL.0>
0

>  <SCORE.INTRA.SOLV>
4.8286

>  <SCORE.INTRA.SOLV.lig_0>
-70.9758

>  <SCORE.INTRA.VDW>
-1.41484

>  <SCORE.INTRA.VDW.0>
-2.70686

>  <SCORE.INTRA.norm>
-0.0614035

>  <SCORE.RESTR>
0.0104022

>  <SCORE.RESTR.CAVITY>
0.0104022

>  <SCORE.RESTR.norm>
0.000385267

>  <SCORE.SYSTEM>
0

>  <SCORE.SYSTEM.CONST>
0

>  <SCORE.SYSTEM.DIHEDRAL>
0

>  <SCORE.SYSTEM.SOLV>
0

>  <SCORE.SYSTEM.norm>
0

>  <SCORE.heavy>
27

>  <SCORE.norm>
-0.404555

>  <RMSD>
5.867

$$$$
ligand
 OpenBabel11021811473D
libRbt.so/2013.1/901 2013/11/27
 27 29  0  0  0  0  0  0  0  0999 V2000
   51.8864   54.9463   26.6065 N   0  0  0  0  0  0  0  0  0  0  0  0
   51.8078   53.9112   27.6348 C   0  0  2  0  0  0  0  0  0  0  0  0
   51.3372   52.5515   27.1141 C   0  0  0  0  0  0  0  0  0  0  0  0
   52.0249   51.9670   26.3445 O   0  0  0  0  0  0  0  0  0  0  0  0
   51.0852   54.3430   28.9280 C   0  0  0  0  0  0  0  0  0  0  0  0
   49.5924   54.7703   28.8625 C   0  0  0  0  0  0  0  0  0  0  0  0
   49.0564   55.5378   30.1002 C   0  0  2  0  0  0  0  0  0  0  0  0
   49.9293   56.6379   30.5099 N   0  0  0  0  0  0  0  0  0  0  0  0
   48.6878   54.5787   31.2739 C   0  0  0  0  0  0  0  0  0  0  0  0
   47.4152   54.8976   32.1289 C   0  0  1  0  0  0  0  0  0  0  0  0
   47.0951   54.0472   33.2697 O   0  0  0  0  0  0  0  0  0  0  0  0
   47.2815   56.3470   32.6744 C   0  0  1  0  0  0  0  0  0  0  0  0
   47.0923   57.4044   31.7251 O   0  0  0  0  0  0  0  0  0  0  0  0
   46.3161   56.2367   33.8950 C   0  0  1  0  0  0  0  0  0  0  0  0
   45.0269   56.7872   33.7704 O   0  0  0  0  0  0  0  0  0  0  0  0
   46.4566   54.7673   34.3049 C   0  0  2  0  0  0  0  0  0  0  0  0
   50.4041   51.8258   27.8811 O   0  0  0  0  0  0  0  0  0  0  0  0
   46.0753   53.5991   39.5943 N   0  0  0  0  0  0  0  0  0  0  0  0
   45.0399   53.6333   38.6531 C   0  0  0  0  0  0  0  0  0  0  0  0
   45.3277   53.9709   37.2609 N   0  0  0  0  0  0  0  0  0  0  0  0
   46.6105   54.2528   36.8735 C   0  0  0  0  0  0  0  0  0  0  0  0
   47.6463   54.2180   37.8274 C   0  0  0  0  0  0  0  0  0  0  0  0
   47.3587   53.8823   39.2148 C   0  0  0  0  0  0  0  0  0  0  0  0
   48.4335   53.8447   40.2071 N   0  0  0  0  0  0  0  0  0  0  0  0
   48.8794   54.5526   37.1577 N   0  0  0  0  0  0  0  0  0  0  0  0
   48.5793   54.7914   35.7959 C   0  0  0  0  0  0  0  0  0  0  0  0
   47.1799   54.6089   35.5997 N   0  0  0  0  0  0  0  0  0  0  0  0
  2  1  1  6  0  0  0
  2  3  1  0  0  0  0
  2  5  1  0  0  0  0
  3  4  1  0  0  0  0
  3 17  1  0  0  0  0
  5  6  1  0  0  0  0
  7  6  1  6  0  0  0
  7  8  1  0  0  0  0
  7  9  1  0  0  0  0
 10  9  1  1  0  0  0
 10 11  1  0  0  0  0
 10 12  1  0  0  0  0
 11 16  1  0  0  0  0
 12 13  1  6  0  0  0
 12 14  1  0  0  0  0
 14 15  1  6  0  0  0
 14 16  1  0  0  0  0
 16 27  1  1  0  0  0
 18 19  2  0  0  0  0
 18 23  1  0  0  0  0
 19 20  1  0  0  0  0
 20 21  2  0  0  0  0
 21 22  1  0  0  0  0
 21 27  1  0  0  0  0
 22 23  2  0  0  0  0
 22 25  1  0  0  0  0
 23 24  1  0  0  0  0
 25 26  2  0  0  0  0
 26 27  1  0  0  0  0
M  END
>  <CHROM.1>
65.35771984,61.52398967,-164.28174075,48.74447797,-141.48624239,-177.02203440
-130.39560941,48.31260999,54.55266452,33.00314601,0.99208935,0.78229225,-1.19244381

>  <Name>
ligand

>  <RI>
0

>  <Rbt.Current_Directory>
/home/itssahil/PROJECTS/Mol_Feturizer/New_Systems/rnas/3GX2

>  <Rbt.Executable>
rbdock ($Id: //depot/dev/client3/rdock/2013.1/src/exe/rbdock.cxx#4 $)

>  <Rbt.Library>
libRbt.so (2013.1, Build901 2013/11/27)

>  <Rbt.Parameter_File>
/export/apps/rDock/src/rDock_2013.1_src/data/scripts/dock_solv.prm

>  <Rbt.Receptor>
prm/pocket_docking_7.prm

>  <SCORE>
-7.82236

>  <SCORE.INTER>
-7.693

>  <SCORE.INTER.CONST>
1

>  <SCORE.INTER.POLAR>
0

>  <SCORE.INTER.ROT>
7

>  <SCORE.INTER.SOLV>
15.4367

>  <SCORE.INTER.VDW>
-18.5409

>  <SCORE.INTER.norm>
-0.284926

>  <SCORE.INTRA>
-0.129361

>  <SCORE.INTRA.DIHEDRAL>
-4.03939

>  <SCORE.INTRA.DIHEDRAL.0>
13.9704

>  <SCORE.INTRA.POLAR>
0

>  <SCORE.INTRA.POLAR.0>
0

>  <SCORE.INTRA.REPUL>
0

>  <SCORE.INTRA.REPUL.0>
0

>  <SCORE.INTRA.SOLV>
2.3042

>  <SCORE.INTRA.SOLV.lig_0>
-70.9758

>  <SCORE.INTRA.VDW>
0.738234

>  <SCORE.INTRA.VDW.0>
-2.70686

>  <SCORE.INTRA.norm>
-0.00479117

>  <SCORE.RESTR>
0

>  <SCORE.RESTR.CAVITY>
0

>  <SCORE.RESTR.norm>
0

>  <SCORE.SYSTEM>
0

>  <SCORE.SYSTEM.CONST>
0

>  <SCORE.SYSTEM.DIHEDRAL>
0

>  <SCORE.SYSTEM.SOLV>
0

>  <SCORE.SYSTEM.norm>
0

>  <SCORE.heavy>
27

>  <SCORE.norm>
-0.289717

>  <RMSD>
5.889

$$$$
ligand
 OpenBabel11021811473D
libRbt.so/2013.1/901 2013/11/27
 27 29  0  0  0  0  0  0  0  0999 V2000
   48.5620   53.2270   27.1647 N   0  0  0  0  0  0  0  0  0  0  0  0
   47.9209   52.4157   28.1970 C   0  0  2  0  0  0  0  0  0  0  0  0
   46.6257   53.0174   28.7463 C   0  0  0  0  0  0  0  0  0  0  0  0
   46.5270   54.1978   28.8075 O   0  0  0  0  0  0  0  0  0  0  0  0
   48.8711   51.9184   29.3065 C   0  0  0  0  0  0  0  0  0  0  0  0
   49.7080   52.9493   30.1140 C   0  0  0  0  0  0  0  0  0  0  0  0
   48.8929   54.0016   30.9119 C   0  0  2  0  0  0  0  0  0  0  0  0
   49.7325   55.0437   31.5027 N   0  0  0  0  0  0  0  0  0  0  0  0
   47.9236   53.3401   31.9396 C   0  0  0  0  0  0  0  0  0  0  0  0
   46.7134   54.1786   32.4732 C   0  0  1  0  0  0  0  0  0  0  0  0
   45.8301   53.5921   33.4747 O   0  0  0  0  0  0  0  0  0  0  0  0
   47.0301   55.5995   33.0179 C   0  0  1  0  0  0  0  0  0  0  0  0
   47.4952   56.5849   32.0864 O   0  0  0  0  0  0  0  0  0  0  0  0
   45.8410   55.9480   33.9659 C   0  0  1  0  0  0  0  0  0  0  0  0
   44.9356   56.9432   33.5528 O   0  0  0  0  0  0  0  0  0  0  0  0
   45.2987   54.5674   34.3489 C   0  0  2  0  0  0  0  0  0  0  0  0
   45.4531   52.2370   28.7048 O   0  0  0  0  0  0  0  0  0  0  0  0
   49.0253   54.2559   38.2862 N   0  0  0  0  0  0  0  0  0  0  0  0
   49.2171   54.6706   36.9633 C   0  0  0  0  0  0  0  0  0  0  0  0
   48.0910   54.6910   36.0325 N   0  0  0  0  0  0  0  0  0  0  0  0
   46.8456   54.3064   36.4524 C   0  0  0  0  0  0  0  0  0  0  0  0
   46.6617   53.8886   37.7849 C   0  0  0  0  0  0  0  0  0  0  0  0
   47.7846   53.8678   38.7118 C   0  0  0  0  0  0  0  0  0  0  0  0
   47.5953   53.4351   40.0969 N   0  0  0  0  0  0  0  0  0  0  0  0
   45.2717   53.5422   37.9548 N   0  0  0  0  0  0  0  0  0  0  0  0
   44.6209   53.7513   36.7162 C   0  0  0  0  0  0  0  0  0  0  0  0
   45.5781   54.2262   35.7738 N   0  0  0  0  0  0  0  0  0  0  0  0
  2  1  1  1  0  0  0
  2  3  1  0  0  0  0
  2  5  1  0  0  0  0
  3  4  1  0  0  0  0
  3 17  1  0  0  0  0
  5  6  1  0  0  0  0
  7  6  1  1  0  0  0
  7  8  1  0  0  0  0
  7  9  1  0  0  0  0
 10  9  1  1  0  0  0
 10 11  1  0  0  0  0
 10 12  1  0  0  0  0
 11 16  1  0  0  0  0
 12 13  1  6  0  0  0
 12 14  1  0  0  0  0
 14 15  1  6  0  0  0
 14 16  1  0  0  0  0
 16 27  1  1  0  0  0
 18 19  2  0  0  0  0
 18 23  1  0  0  0  0
 19 20  1  0  0  0  0
 20 21  2  0  0  0  0
 21 22  1  0  0  0  0
 21 27  1  0  0  0  0
 22 23  2  0  0  0  0
 22 25  1  0  0  0  0
 23 24  1  0  0  0  0
 25 26  2  0  0  0  0
 26 27  1  0  0  0  0
M  END
>  <CHROM.1>
-32.61413859,56.03413915,60.56315861,-172.38806335,-159.86617616,-177.55496856
72.83777408,47.16644390,54.10208792,33.31921027,-1.48114622,-0.27510588,1.48905316

>  <Name>
ligand

>  <RI>
0

>  <Rbt.Current_Directory>
/home/itssahil/PROJECTS/Mol_Feturizer/New_Systems/rnas/3GX2

>  <Rbt.Executable>
rbdock ($Id: //depot/dev/client3/rdock/2013.1/src/exe/rbdock.cxx#4 $)

>  <Rbt.Library>
libRbt.so (2013.1, Build901 2013/11/27)

>  <Rbt.Parameter_File>
/export/apps/rDock/src/rDock_2013.1_src/data/scripts/dock_solv.prm

>  <Rbt.Receptor>
prm/pocket_docking_7.prm

>  <SCORE>
-14.3464

>  <SCORE.INTER>
-11.4124

>  <SCORE.INTER.CONST>
1

>  <SCORE.INTER.POLAR>
0

>  <SCORE.INTER.ROT>
7

>  <SCORE.INTER.SOLV>
11.3692

>  <SCORE.INTER.VDW>
-19.6647

>  <SCORE.INTER.norm>
-0.422681

>  <SCORE.INTRA>
-2.93406

>  <SCORE.INTRA.DIHEDRAL>
-7.8719

>  <SCORE.INTRA.DIHEDRAL.0>
13.9704

>  <SCORE.INTRA.POLAR>
0

>  <SCORE.INTRA.POLAR.0>
0

>  <SCORE.INTRA.REPUL>
0

>  <SCORE.INTRA.REPUL.0>
0

>  <SCORE.INTRA.SOLV>
3.50765

>  <SCORE.INTRA.SOLV.lig_0>
-70.9758

>  <SCORE.INTRA.VDW>
-0.751938

>  <SCORE.INTRA.VDW.0>
-2.70686

>  <SCORE.INTRA.norm>
-0.108669

>  <SCORE.RESTR>
0

>  <SCORE.RESTR.CAVITY>
0

>  <SCORE.RESTR.norm>
0

>  <SCORE.SYSTEM>
0

>  <SCORE.SYSTEM.CONST>
0

>  <SCORE.SYSTEM.DIHEDRAL>
0

>  <SCORE.SYSTEM.SOLV>
0

>  <SCORE.SYSTEM.norm>
0

>  <SCORE.heavy>
27

>  <SCORE.norm>
-0.53135

>  <RMSD>
5.896

$$$$
ligand
 OpenBabel11021811473D
libRbt.so/2013.1/901 2013/11/27
 27 29  0  0  0  0  0  0  0  0999 V2000
   45.9051   58.9061   30.4272 N   0  0  0  0  0  0  0  0  0  0  0  0
   46.2230   59.5301   31.7095 C   0  0  2  0  0  0  0  0  0  0  0  0
   46.8665   60.9128   31.5860 C   0  0  0  0  0  0  0  0  0  0  0  0
   46.2418   61.8639   31.9208 O   0  0  0  0  0  0  0  0  0  0  0  0
   46.9587   58.6111   32.7071 C   0  0  0  0  0  0  0  0  0  0  0  0
   48.2625   57.8911   32.2635 C   0  0  0  0  0  0  0  0  0  0  0  0
   48.9707   57.0462   33.3558 C   0  0  2  0  0  0  0  0  0  0  0  0
   49.5260   57.8620   34.4357 N   0  0  0  0  0  0  0  0  0  0  0  0
   50.0037   56.0468   32.7498 C   0  0  0  0  0  0  0  0  0  0  0  0
   49.4689   54.8169   31.9413 C   0  0  1  0  0  0  0  0  0  0  0  0
   48.6443   53.8245   32.6214 O   0  0  0  0  0  0  0  0  0  0  0  0
   48.7026   55.1226   30.6240 C   0  0  1  0  0  0  0  0  0  0  0  0
   49.4397   55.7041   29.5406 O   0  0  0  0  0  0  0  0  0  0  0  0
   47.8265   53.8593   30.3584 C   0  0  1  0  0  0  0  0  0  0  0  0
   48.1753   53.0279   29.2776 O   0  0  0  0  0  0  0  0  0  0  0  0
   47.6929   53.2415   31.7538 C   0  0  2  0  0  0  0  0  0  0  0  0
   48.2727   60.9979   31.5549 O   0  0  0  0  0  0  0  0  0  0  0  0
   44.5153   52.9899   36.1500 N   0  0  0  0  0  0  0  0  0  0  0  0
   45.8968   52.7753   36.0847 C   0  0  0  0  0  0  0  0  0  0  0  0
   46.5945   52.8850   34.8055 N   0  0  0  0  0  0  0  0  0  0  0  0
   45.8991   53.1996   33.6686 C   0  0  0  0  0  0  0  0  0  0  0  0
   44.5087   53.4122   33.7428 C   0  0  0  0  0  0  0  0  0  0  0  0
   43.8139   53.3019   35.0178 C   0  0  0  0  0  0  0  0  0  0  0  0
   42.3696   53.5233   35.0971 N   0  0  0  0  0  0  0  0  0  0  0  0
   44.0345   53.7226   32.4163 N   0  0  0  0  0  0  0  0  0  0  0  0
   45.1471   53.6930   31.5429 C   0  0  0  0  0  0  0  0  0  0  0  0
   46.3111   53.3729   32.2997 N   0  0  0  0  0  0  0  0  0  0  0  0
  2  1  1  6  0  0  0
  2  3  1  0  0  0  0
  2  5  1  0  0  0  0
  3  4  1  0  0  0  0
  3 17  1  0  0  0  0
  5  6  1  0  0  0  0
  7  6  1  6  0  0  0
  7  8  1  0  0  0  0
  7  9  1  0  0  0  0
 10  9  1  1  0  0  0
 10 11  1  0  0  0  0
 10 12  1  0  0  0  0
 11 16  1  0  0  0  0
 12 13  1  6  0  0  0
 12 14  1  0  0  0  0
 14 15  1  6  0  0  0
 14 16  1  0  0  0  0
 16 27  1  1  0  0  0
 18 19  2  0  0  0  0
 18 23  1  0  0  0  0
 19 20  1  0  0  0  0
 20 21  2  0  0  0  0
 21 22  1  0  0  0  0
 21 27  1  0  0  0  0
 22 23  2  0  0  0  0
 22 25  1  0  0  0  0
 23 24  1  0  0  0  0
 25 26  2  0  0  0  0
 26 27  1  0  0  0  0
M  END
>  <CHROM.1>
110.47146269,53.52400384,176.99540868,-67.35044515,-70.47040504,-62.69386801
-41.20303744,46.96265694,55.72388061,32.51632539,1.13688712,0.67398857,-0.05452709

>  <Name>
ligand

>  <RI>
0

>  <Rbt.Current_Directory>
/home/itssahil/PROJECTS/Mol_Feturizer/New_Systems/rnas/3GX2

>  <Rbt.Executable>
rbdock ($Id: //depot/dev/client3/rdock/2013.1/src/exe/rbdock.cxx#4 $)

>  <Rbt.Library>
libRbt.so (2013.1, Build901 2013/11/27)

>  <Rbt.Parameter_File>
/export/apps/rDock/src/rDock_2013.1_src/data/scripts/dock_solv.prm

>  <Rbt.Receptor>
prm/pocket_docking_6.prm

>  <SCORE>
-11.4332

>  <SCORE.INTER>
-7.55566

>  <SCORE.INTER.CONST>
1

>  <SCORE.INTER.POLAR>
0

>  <SCORE.INTER.ROT>
7

>  <SCORE.INTER.SOLV>
18.2053

>  <SCORE.INTER.VDW>
-19.3722

>  <SCORE.INTER.norm>
-0.279839

>  <SCORE.INTRA>
-3.87758

>  <SCORE.INTRA.DIHEDRAL>
-8.49383

>  <SCORE.INTRA.DIHEDRAL.0>
13.9704

>  <SCORE.INTRA.POLAR>
0

>  <SCORE.INTRA.POLAR.0>
0

>  <SCORE.INTRA.REPUL>
0

>  <SCORE.INTRA.REPUL.0>
0

>  <SCORE.INTRA.SOLV>
0.322607

>  <SCORE.INTRA.SOLV.lig_0>
-70.9758

>  <SCORE.INTRA.VDW>
0.208034

>  <SCORE.INTRA.VDW.0>
-2.70686

>  <SCORE.INTRA.norm>
-0.143614

>  <SCORE.RESTR>
0

>  <SCORE.RESTR.CAVITY>
0

>  <SCORE.RESTR.norm>
0

>  <SCORE.SYSTEM>
0

>  <SCORE.SYSTEM.CONST>
0

>  <SCORE.SYSTEM.DIHEDRAL>
0

>  <SCORE.SYSTEM.SOLV>
0

>  <SCORE.SYSTEM.norm>
0

>  <SCORE.heavy>
27

>  <SCORE.norm>
-0.423453

>  <RMSD>
5.904

$$$$
ligand
 OpenBabel11021811473D
libRbt.so/2013.1/901 2013/11/27
 27 29  0  0  0  0  0  0  0  0999 V2000
   47.0458   54.2073   35.8992 N   0  0  0  0  0  0  0  0  0  0  0  0
   48.2628   53.8023   35.1991 C   0  0  2  0  0  0  0  0  0  0  0  0
   49.4315   54.7751   35.3693 C   0  0  0  0  0  0  0  0  0  0  0  0
   50.5257   54.4033   35.1026 O   0  0  0  0  0  0  0  0  0  0  0  0
   48.0479   53.3706   33.7333 C   0  0  0  0  0  0  0  0  0  0  0  0
   47.6456   54.4350   32.6748 C   0  0  0  0  0  0  0  0  0  0  0  0
   46.3304   55.2071   32.9620 C   0  0  2  0  0  0  0  0  0  0  0  0
   45.5303   55.4362   31.7590 N   0  0  0  0  0  0  0  0  0  0  0  0
   46.5788   56.5062   33.7890 C   0  0  0  0  0  0  0  0  0  0  0  0
   47.4347   57.6496   33.1466 C   0  0  1  0  0  0  0  0  0  0  0  0
   48.7398   57.3271   32.5810 O   0  0  0  0  0  0  0  0  0  0  0  0
   46.7426   58.5172   32.0584 C   0  0  1  0  0  0  0  0  0  0  0  0
   45.6534   59.3563   32.4642 O   0  0  0  0  0  0  0  0  0  0  0  0
   47.9085   59.1322   31.2237 C   0  0  1  0  0  0  0  0  0  0  0  0
   48.1499   60.5137   31.3425 O   0  0  0  0  0  0  0  0  0  0  0  0
   49.0600   58.1552   31.4812 C   0  0  2  0  0  0  0  0  0  0  0  0
   49.1602   56.1579   35.3583 O   0  0  0  0  0  0  0  0  0  0  0  0
   48.2003   57.3599   26.1788 N   0  0  0  0  0  0  0  0  0  0  0  0
   47.6182   58.3330   26.9991 C   0  0  0  0  0  0  0  0  0  0  0  0
   47.9690   58.4007   28.4159 N   0  0  0  0  0  0  0  0  0  0  0  0
   48.8689   57.5138   28.9439 C   0  0  0  0  0  0  0  0  0  0  0  0
   49.4486   56.5363   28.1118 C   0  0  0  0  0  0  0  0  0  0  0  0
   49.0980   56.4690   26.7000 C   0  0  0  0  0  0  0  0  0  0  0  0
   49.7000   55.4548   25.8338 N   0  0  0  0  0  0  0  0  0  0  0  0
   50.3470   55.7438   28.9154 N   0  0  0  0  0  0  0  0  0  0  0  0
   50.3025   56.2483   30.2364 C   0  0  0  0  0  0  0  0  0  0  0  0
   49.3944   57.3456   30.2739 N   0  0  0  0  0  0  0  0  0  0  0  0
  2  1  1  6  0  0  0
  2  3  1  0  0  0  0
  2  5  1  0  0  0  0
  3  4  1  0  0  0  0
  3 17  1  0  0  0  0
  5  6  1  0  0  0  0
  7  6  1  6  0  0  0
  7  8  1  0  0  0  0
  7  9  1  0  0  0  0
 10  9  1  6  0  0  0
 10 11  1  0  0  0  0
 10 12  1  0  0  0  0
 11 16  1  0  0  0  0
 12 13  1  1  0  0  0
 12 14  1  0  0  0  0
 14 15  1  1  0  0  0
 14 16  1  0  0  0  0
 16 27  1  6  0  0  0
 18 19  2  0  0  0  0
 18 23  1  0  0  0  0
 19 20  1  0  0  0  0
 20 21  2  0  0  0  0
 21 22  1  0  0  0  0
 21 27  1  0  0  0  0
 22 23  2  0  0  0  0
 22 25  1  0  0  0  0
 23 24  1  0  0  0  0
 25 26  2  0  0  0  0
 26 27  1  0  0  0  0
M  END
>  <CHROM.1>
163.34045126,68.99005157,-58.46740871,-140.46696474,64.04165729,-51.32034007
130.79427282,48.25679807,56.61713490,31.46879002,-1.73927432,1.04601740,-1.10403351

>  <Name>
ligand

>  <RI>
0

>  <Rbt.Current_Directory>
/home/itssahil/PROJECTS/Mol_Feturizer/New_Systems/rnas/3GX2

>  <Rbt.Executable>
rbdock ($Id: //depot/dev/client3/rdock/2013.1/src/exe/rbdock.cxx#4 $)

>  <Rbt.Library>
libRbt.so (2013.1, Build901 2013/11/27)

>  <Rbt.Parameter_File>
/export/apps/rDock/src/rDock_2013.1_src/data/scripts/dock_solv.prm

>  <Rbt.Receptor>
prm/pocket_docking_4.prm

>  <SCORE>
-12.3909

>  <SCORE.INTER>
-11.3981

>  <SCORE.INTER.CONST>
1

>  <SCORE.INTER.POLAR>
0

>  <SCORE.INTER.ROT>
7

>  <SCORE.INTER.SOLV>
13.6311

>  <SCORE.INTER.VDW>
-20.4091

>  <SCORE.INTER.norm>
-0.422151

>  <SCORE.INTRA>
-1.006

>  <SCORE.INTRA.DIHEDRAL>
-4.69399

>  <SCORE.INTRA.DIHEDRAL.0>
13.9704

>  <SCORE.INTRA.POLAR>
0

>  <SCORE.INTRA.POLAR.0>
0

>  <SCORE.INTRA.REPUL>
0

>  <SCORE.INTRA.REPUL.0>
0

>  <SCORE.INTRA.SOLV>
5.01118

>  <SCORE.INTRA.SOLV.lig_0>
-70.9758

>  <SCORE.INTRA.VDW>
-1.16459

>  <SCORE.INTRA.VDW.0>
-2.70686

>  <SCORE.INTRA.norm>
-0.0372593

>  <SCORE.RESTR>
0.0131395

>  <SCORE.RESTR.CAVITY>
0.0131395

>  <SCORE.RESTR.norm>
0.000486649

>  <SCORE.SYSTEM>
0

>  <SCORE.SYSTEM.CONST>
0

>  <SCORE.SYSTEM.DIHEDRAL>
0

>  <SCORE.SYSTEM.SOLV>
0

>  <SCORE.SYSTEM.norm>
0

>  <SCORE.heavy>
27

>  <SCORE.norm>
-0.458924

>  <RMSD>
5.906

$$$$
ligand
 OpenBabel11021811483D
libRbt.so/2013.1/901 2013/11/27
 27 29  0  0  0  0  0  0  0  0999 V2000
   45.3446   57.6919   30.7131 N   0  0  0  0  0  0  0  0  0  0  0  0
   45.5147   58.3431   32.0100 C   0  0  2  0  0  0  0  0  0  0  0  0
   46.0117   59.7875   31.9206 C   0  0  0  0  0  0  0  0  0  0  0  0
   47.0753   59.9953   31.4385 O   0  0  0  0  0  0  0  0  0  0  0  0
   46.2832   57.5060   33.0540 C   0  0  0  0  0  0  0  0  0  0  0  0
   47.7825   57.1749   32.8137 C   0  0  0  0  0  0  0  0  0  0  0  0
   48.4780   56.3518   33.9304 C   0  0  2  0  0  0  0  0  0  0  0  0
   49.9377   56.3892   33.8401 N   0  0  0  0  0  0  0  0  0  0  0  0
   47.9079   54.9037   34.0365 C   0  0  0  0  0  0  0  0  0  0  0  0
   46.7733   54.6211   35.0782 C   0  0  1  0  0  0  0  0  0  0  0  0
   45.4853   55.2876   34.9234 O   0  0  0  0  0  0  0  0  0  0  0  0
   46.4120   53.1314   35.3354 C   0  0  1  0  0  0  0  0  0  0  0  0
   47.3994   52.3018   35.9615 O   0  0  0  0  0  0  0  0  0  0  0  0
   44.9618   53.1560   35.9100 C   0  0  1  0  0  0  0  0  0  0  0  0
   44.7824   52.8281   37.2669 O   0  0  0  0  0  0  0  0  0  0  0  0
   44.4164   54.4911   35.3933 C   0  0  2  0  0  0  0  0  0  0  0  0
   45.0605   60.8269   31.9461 O   0  0  0  0  0  0  0  0  0  0  0  0
   43.4005   53.5632   30.1403 N   0  0  0  0  0  0  0  0  0  0  0  0
   44.6510   53.6690   30.7598 C   0  0  0  0  0  0  0  0  0  0  0  0
   44.7367   53.9239   32.1961 N   0  0  0  0  0  0  0  0  0  0  0  0
   43.5944   54.0580   32.9392 C   0  0  0  0  0  0  0  0  0  0  0  0
   42.3399   53.9519   32.3075 C   0  0  0  0  0  0  0  0  0  0  0  0
   42.2553   53.6987   30.8760 C   0  0  0  0  0  0  0  0  0  0  0  0
   40.9529   53.5872   30.2181 N   0  0  0  0  0  0  0  0  0  0  0  0
   41.3196   54.1331   33.3111 N   0  0  0  0  0  0  0  0  0  0  0  0
   41.9673   54.3514   34.5498 C   0  0  0  0  0  0  0  0  0  0  0  0
   43.3759   54.3067   34.3406 N   0  0  0  0  0  0  0  0  0  0  0  0
  2  1  1  6  0  0  0
  2  3  1  0  0  0  0
  2  5  1  0  0  0  0
  3  4  1  0  0  0  0
  3 17  1  0  0  0  0
  5  6  1  0  0  0  0
  7  6  1  6  0  0  0
  7  8  1  0  0  0  0
  7  9  1  0  0  0  0
 10  9  1  6  0  0  0
 10 11  1  0  0  0  0
 10 12  1  0  0  0  0
 11 16  1  0  0  0  0
 12 13  1  1  0  0  0
 12 14  1  0  0  0  0
 14 15  1  1  0  0  0
 14 16  1  0  0  0  0
 16 27  1  6  0  0  0
 18 19  2  0  0  0  0
 18 23  1  0  0  0  0
 19 20  1  0  0  0  0
 20 21  2  0  0  0  0
 21 22  1  0  0  0  0
 21 27  1  0  0  0  0
 22 23  2  0  0  0  0
 22 25  1  0  0  0  0
 23 24  1  0  0  0  0
 25 26  2  0  0  0  0
 26 27  1  0  0  0  0
M  END
>  <CHROM.1>
-62.20646457,65.79156012,178.87561490,-164.00301793,-94.89123711,63.60825080
41.24136718,45.18228299,55.38973135,33.26574941,0.94223105,-0.54475583,-0.65624183

>  <Name>
ligand

>  <RI>
0

>  <Rbt.Current_Directory>
/home/itssahil/PROJECTS/Mol_Feturizer/New_Systems/rnas/3GX2

>  <Rbt.Executable>
rbdock ($Id: //depot/dev/client3/rdock/2013.1/src/exe/rbdock.cxx#4 $)

>  <Rbt.Library>
libRbt.so (2013.1, Build901 2013/11/27)

>  <Rbt.Parameter_File>
/export/apps/rDock/src/rDock_2013.1_src/data/scripts/dock_solv.prm

>  <Rbt.Receptor>
prm/pocket_docking_8.prm

>  <SCORE>
-10.6267

>  <SCORE.INTER>
-7.25237

>  <SCORE.INTER.CONST>
1

>  <SCORE.INTER.POLAR>
0

>  <SCORE.INTER.ROT>
7

>  <SCORE.INTER.SOLV>
13.1901

>  <SCORE.INTER.VDW>
-17.4983

>  <SCORE.INTER.norm>
-0.268606

>  <SCORE.INTRA>
-3.3743

>  <SCORE.INTRA.DIHEDRAL>
-5.07469

>  <SCORE.INTRA.DIHEDRAL.0>
13.9704

>  <SCORE.INTRA.POLAR>
0

>  <SCORE.INTRA.POLAR.0>
0

>  <SCORE.INTRA.REPUL>
0

>  <SCORE.INTRA.REPUL.0>
0

>  <SCORE.INTRA.SOLV>
-0.211079

>  <SCORE.INTRA.SOLV.lig_0>
-70.9758

>  <SCORE.INTRA.VDW>
-0.731416

>  <SCORE.INTRA.VDW.0>
-2.70686

>  <SCORE.INTRA.norm>
-0.124974

>  <SCORE.RESTR>
0

>  <SCORE.RESTR.CAVITY>
0

>  <SCORE.RESTR.norm>
0

>  <SCORE.SYSTEM>
0

>  <SCORE.SYSTEM.CONST>
0

>  <SCORE.SYSTEM.DIHEDRAL>
0

>  <SCORE.SYSTEM.SOLV>
0

>  <SCORE.SYSTEM.norm>
0

>  <SCORE.heavy>
27

>  <SCORE.norm>
-0.39358

>  <RMSD>
5.924

$$$$
ligand
 OpenBabel11021811483D
libRbt.so/2013.1/901 2013/11/27
 27 29  0  0  0  0  0  0  0  0999 V2000
   46.3105   60.4221   31.8819 N   0  0  0  0  0  0  0  0  0  0  0  0
   47.4467   60.2233   30.9849 C   0  0  2  0  0  0  0  0  0  0  0  0
   47.2942   59.0269   30.0434 C   0  0  0  0  0  0  0  0  0  0  0  0
   48.2640   58.5828   29.5247 O   0  0  0  0  0  0  0  0  0  0  0  0
   48.8265   60.2748   31.6738 C   0  0  0  0  0  0  0  0  0  0  0  0
   49.0181   59.5832   33.0523 C   0  0  0  0  0  0  0  0  0  0  0  0
   48.7974   58.0472   33.0719 C   0  0  2  0  0  0  0  0  0  0  0  0
   47.4405   57.6620   32.6840 N   0  0  0  0  0  0  0  0  0  0  0  0
   49.2560   57.4035   34.4167 C   0  0  0  0  0  0  0  0  0  0  0  0
   49.3895   55.8450   34.4927 C   0  0  1  0  0  0  0  0  0  0  0  0
   49.5954   55.2126   35.7907 O   0  0  0  0  0  0  0  0  0  0  0  0
   48.2587   55.0107   33.8284 C   0  0  1  0  0  0  0  0  0  0  0  0
   48.1255   55.0797   32.4027 O   0  0  0  0  0  0  0  0  0  0  0  0
   48.3202   53.6143   34.5215 C   0  0  1  0  0  0  0  0  0  0  0  0
   48.7755   52.5193   33.7636 O   0  0  0  0  0  0  0  0  0  0  0  0
   49.0078   53.9287   35.8539 C   0  0  2  0  0  0  0  0  0  0  0  0
   46.1589   58.2039   30.1830 O   0  0  0  0  0  0  0  0  0  0  0  0
   43.8483   54.0671   37.5416 N   0  0  0  0  0  0  0  0  0  0  0  0
   44.3217   54.2367   36.2355 C   0  0  0  0  0  0  0  0  0  0  0  0
   45.7554   54.1678   35.9622 N   0  0  0  0  0  0  0  0  0  0  0  0
   46.6388   53.9356   36.9825 C   0  0  0  0  0  0  0  0  0  0  0  0
   46.1542   53.7680   38.2944 C   0  0  0  0  0  0  0  0  0  0  0  0
   44.7252   53.8375   38.5661 C   0  0  0  0  0  0  0  0  0  0  0  0
   44.2198   53.6626   39.9282 N   0  0  0  0  0  0  0  0  0  0  0  0
   47.2850   53.5419   39.1610 N   0  0  0  0  0  0  0  0  0  0  0  0
   48.4531   53.5771   38.3636 C   0  0  0  0  0  0  0  0  0  0  0  0
   48.0736   53.8178   37.0115 N   0  0  0  0  0  0  0  0  0  0  0  0
  2  1  1  1  0  0  0
  2  3  1  0  0  0  0
  2  5  1  0  0  0  0
  3  4  1  0  0  0  0
  3 17  1  0  0  0  0
  5  6  1  0  0  0  0
  7  6  1  1  0  0  0
  7  8  1  0  0  0  0
  7  9  1  0  0  0  0
 10  9  1  1  0  0  0
 10 11  1  0  0  0  0
 10 12  1  0  0  0  0
 11 16  1  0  0  0  0
 12 13  1  6  0  0  0
 12 14  1  0  0  0  0
 14 15  1  6  0  0  0
 14 16  1  0  0  0  0
 16 27  1  1  0  0  0
 18 19  2  0  0  0  0
 18 23  1  0  0  0  0
 19 20  1  0  0  0  0
 20 21  2  0  0  0  0
 21 22  1  0  0  0  0
 21 27  1  0  0  0  0
 22 23  2  0  0  0  0
 22 25  1  0  0  0  0
 23 24  1  0  0  0  0
 25 26  2  0  0  0  0
 26 27  1  0  0  0  0
M  END
>  <CHROM.1>
-161.49607196,41.50418870,62.03895118,-61.07258881,-167.14122798,-169.75726131
99.33048408,47.43799400,55.94207559,34.55699615,1.37619843,0.38984471,-0.81573529

>  <Name>
ligand

>  <RI>
0

>  <Rbt.Current_Directory>
/home/itssahil/PROJECTS/Mol_Feturizer/New_Systems/rnas/3GX2

>  <Rbt.Executable>
rbdock ($Id: //depot/dev/client3/rdock/2013.1/src/exe/rbdock.cxx#4 $)

>  <Rbt.Library>
libRbt.so (2013.1, Build901 2013/11/27)

>  <Rbt.Parameter_File>
/export/apps/rDock/src/rDock_2013.1_src/data/scripts/dock_solv.prm

>  <Rbt.Receptor>
prm/pocket_docking_8.prm

>  <SCORE>
-17.2885

>  <SCORE.INTER>
-18.2123

>  <SCORE.INTER.CONST>
1

>  <SCORE.INTER.POLAR>
0

>  <SCORE.INTER.ROT>
7

>  <SCORE.INTER.SOLV>
15.1734

>  <SCORE.INTER.VDW>
-25.466

>  <SCORE.INTER.norm>
-0.674531

>  <SCORE.INTRA>
0.923867

>  <SCORE.INTRA.DIHEDRAL>
-7.36091

>  <SCORE.INTRA.DIHEDRAL.0>
13.9704

>  <SCORE.INTRA.POLAR>
0

>  <SCORE.INTRA.POLAR.0>
0

>  <SCORE.INTRA.REPUL>
0

>  <SCORE.INTRA.REPUL.0>
0

>  <SCORE.INTRA.SOLV>
8.60902

>  <SCORE.INTRA.SOLV.lig_0>
-70.9758

>  <SCORE.INTRA.VDW>
0.299812

>  <SCORE.INTRA.VDW.0>
-2.70686

>  <SCORE.INTRA.norm>
0.0342173

>  <SCORE.RESTR>
0

>  <SCORE.RESTR.CAVITY>
0

>  <SCORE.RESTR.norm>
0

>  <SCORE.SYSTEM>
0

>  <SCORE.SYSTEM.CONST>
0

>  <SCORE.SYSTEM.DIHEDRAL>
0

>  <SCORE.SYSTEM.SOLV>
0

>  <SCORE.SYSTEM.norm>
0

>  <SCORE.heavy>
27

>  <SCORE.norm>
-0.640313

>  <RMSD>
5.936

$$$$
ligand
 OpenBabel11021811473D
libRbt.so/2013.1/901 2013/11/27
 27 29  0  0  0  0  0  0  0  0999 V2000
   45.7635   57.5619   33.3298 N   0  0  0  0  0  0  0  0  0  0  0  0
   45.3955   57.2661   31.9471 C   0  0  2  0  0  0  0  0  0  0  0  0
   45.8552   58.3234   30.9411 C   0  0  0  0  0  0  0  0  0  0  0  0
   45.9780   58.0119   29.8032 O   0  0  0  0  0  0  0  0  0  0  0  0
   43.9237   56.8468   31.7490 C   0  0  0  0  0  0  0  0  0  0  0  0
   43.3759   55.6031   32.5026 C   0  0  0  0  0  0  0  0  0  0  0  0
   43.7268   54.2272   31.8763 C   0  0  2  0  0  0  0  0  0  0  0  0
   42.5544   53.3740   31.6827 N   0  0  0  0  0  0  0  0  0  0  0  0
   44.8857   53.5122   32.6372 C   0  0  0  0  0  0  0  0  0  0  0  0
   46.2569   54.2551   32.7802 C   0  0  1  0  0  0  0  0  0  0  0  0
   46.4790   55.1193   33.9338 O   0  0  0  0  0  0  0  0  0  0  0  0
   47.5401   53.3821   32.6951 C   0  0  1  0  0  0  0  0  0  0  0  0
   47.8406   52.7544   31.4417 O   0  0  0  0  0  0  0  0  0  0  0  0
   48.6470   54.2115   33.4169 C   0  0  1  0  0  0  0  0  0  0  0  0
   49.6754   54.7660   32.6321 O   0  0  0  0  0  0  0  0  0  0  0  0
   47.8353   55.1340   34.3317 C   0  0  2  0  0  0  0  0  0  0  0  0
   45.6560   59.6820   31.2577 O   0  0  0  0  0  0  0  0  0  0  0  0
   45.3217   53.5926   38.8917 N   0  0  0  0  0  0  0  0  0  0  0  0
   44.7415   53.8447   37.6432 C   0  0  0  0  0  0  0  0  0  0  0  0
   45.5777   54.2548   36.5173 N   0  0  0  0  0  0  0  0  0  0  0  0
   46.9304   54.3916   36.6803 C   0  0  0  0  0  0  0  0  0  0  0  0
   47.5060   54.1378   37.9406 C   0  0  0  0  0  0  0  0  0  0  0  0
   46.6720   53.7299   39.0624 C   0  0  0  0  0  0  0  0  0  0  0  0
   47.2683   53.4647   40.3722 N   0  0  0  0  0  0  0  0  0  0  0  0
   48.9278   54.3567   37.8326 N   0  0  0  0  0  0  0  0  0  0  0  0
   49.2040   54.7464   36.5010 C   0  0  0  0  0  0  0  0  0  0  0  0
   47.9805   54.7720   35.7714 N   0  0  0  0  0  0  0  0  0  0  0  0
  2  1  1  1  0  0  0
  2  3  1  0  0  0  0
  2  5  1  0  0  0  0
  3  4  1  0  0  0  0
  3 17  1  0  0  0  0
  5  6  1  0  0  0  0
  7  6  1  1  0  0  0
  7  8  1  0  0  0  0
  7  9  1  0  0  0  0
 10  9  1  1  0  0  0
 10 11  1  0  0  0  0
 10 12  1  0  0  0  0
 11 16  1  0  0  0  0
 12 13  1  6  0  0  0
 12 14  1  0  0  0  0
 14 15  1  6  0  0  0
 14 16  1  0  0  0  0
 16 27  1  1  0  0  0
 18 19  2  0  0  0  0
 18 23  1  0  0  0  0
 19 20  1  0  0  0  0
 20 21  2  0  0  0  0
 21 22  1  0  0  0  0
 21 27  1  0  0  0  0
 22 23  2  0  0  0  0
 22 25  1  0  0  0  0
 23 24  1  0  0  0  0
 25 26  2  0  0  0  0
 26 27  1  0  0  0  0
M  END
>  <CHROM.1>
157.37411379,-58.56506408,-79.99387673,-128.46165267,-57.28247656,89.62192238
2.51092685,46.35312846,55.05835701,34.18007944,1.82074327,-0.05374818,-1.16483699

>  <Name>
ligand

>  <RI>
0

>  <Rbt.Current_Directory>
/home/itssahil/PROJECTS/Mol_Feturizer/New_Systems/rnas/3GX2

>  <Rbt.Executable>
rbdock ($Id: //depot/dev/client3/rdock/2013.1/src/exe/rbdock.cxx#4 $)

>  <Rbt.Library>
libRbt.so (2013.1, Build901 2013/11/27)

>  <Rbt.Parameter_File>
/export/apps/rDock/src/rDock_2013.1_src/data/scripts/dock_solv.prm

>  <Rbt.Receptor>
prm/pocket_docking_7.prm

>  <SCORE>
-7.47219

>  <SCORE.INTER>
-8.42399

>  <SCORE.INTER.CONST>
1

>  <SCORE.INTER.POLAR>
0

>  <SCORE.INTER.ROT>
7

>  <SCORE.INTER.SOLV>
11.173

>  <SCORE.INTER.VDW>
-17.607

>  <SCORE.INTER.norm>
-0.312

>  <SCORE.INTRA>
0.951798

>  <SCORE.INTRA.DIHEDRAL>
0.318792

>  <SCORE.INTRA.DIHEDRAL.0>
13.9704

>  <SCORE.INTRA.POLAR>
0

>  <SCORE.INTRA.POLAR.0>
0

>  <SCORE.INTRA.REPUL>
0

>  <SCORE.INTRA.REPUL.0>
0

>  <SCORE.INTRA.SOLV>
3.03834

>  <SCORE.INTRA.SOLV.lig_0>
-70.9758

>  <SCORE.INTRA.VDW>
-0.726767

>  <SCORE.INTRA.VDW.0>
-2.70686

>  <SCORE.INTRA.norm>
0.0352518

>  <SCORE.RESTR>
0

>  <SCORE.RESTR.CAVITY>
0

>  <SCORE.RESTR.norm>
0

>  <SCORE.SYSTEM>
0

>  <SCORE.SYSTEM.CONST>
0

>  <SCORE.SYSTEM.DIHEDRAL>
0

>  <SCORE.SYSTEM.SOLV>
0

>  <SCORE.SYSTEM.norm>
0

>  <SCORE.heavy>
27

>  <SCORE.norm>
-0.276748

>  <RMSD>
5.953

$$$$
ligand
 OpenBabel11021811473D
libRbt.so/2013.1/901 2013/11/27
 27 29  0  0  0  0  0  0  0  0999 V2000
   45.7864   56.8605   31.5694 N   0  0  0  0  0  0  0  0  0  0  0  0
   46.5582   58.0965   31.4609 C   0  0  2  0  0  0  0  0  0  0  0  0
   45.7910   59.3488   31.8903 C   0  0  0  0  0  0  0  0  0  0  0  0
   44.8264   59.2214   32.5687 O   0  0  0  0  0  0  0  0  0  0  0  0
   47.3000   58.2757   30.1198 C   0  0  0  0  0  0  0  0  0  0  0  0
   48.3074   57.1883   29.6530 C   0  0  0  0  0  0  0  0  0  0  0  0
   48.9023   57.3861   28.2333 C   0  0  2  0  0  0  0  0  0  0  0  0
   47.8832   57.3863   27.1838 N   0  0  0  0  0  0  0  0  0  0  0  0
   50.0780   56.4022   27.9452 C   0  0  0  0  0  0  0  0  0  0  0  0
   49.8095   54.8633   28.0557 C   0  0  1  0  0  0  0  0  0  0  0  0
   49.7207   54.2512   29.3765 O   0  0  0  0  0  0  0  0  0  0  0  0
   48.5781   54.3088   27.2862 C   0  0  1  0  0  0  0  0  0  0  0  0
   48.6089   54.3524   25.8537 O   0  0  0  0  0  0  0  0  0  0  0  0
   48.2195   52.9689   28.0005 C   0  0  1  0  0  0  0  0  0  0  0  0
   48.4597   51.7664   27.3098 O   0  0  0  0  0  0  0  0  0  0  0  0
   48.8276   53.1558   29.3941 C   0  0  2  0  0  0  0  0  0  0  0  0
   46.4718   60.5825   31.8991 O   0  0  0  0  0  0  0  0  0  0  0  0
   47.7441   53.3140   34.7127 N   0  0  0  0  0  0  0  0  0  0  0  0
   48.9874   53.1112   34.1028 C   0  0  0  0  0  0  0  0  0  0  0  0
   49.0940   53.0987   32.6456 N   0  0  0  0  0  0  0  0  0  0  0  0
   47.9788   53.2869   31.8736 C   0  0  0  0  0  0  0  0  0  0  0  0
   46.7311   53.4885   32.4955 C   0  0  0  0  0  0  0  0  0  0  0  0
   46.6255   53.5001   33.9478 C   0  0  0  0  0  0  0  0  0  0  0  0
   45.3303   53.7103   34.5956 N   0  0  0  0  0  0  0  0  0  0  0  0
   45.7400   53.6560   31.4607 N   0  0  0  0  0  0  0  0  0  0  0  0
   46.3980   53.5514   30.2127 C   0  0  0  0  0  0  0  0  0  0  0  0
   47.7850   53.3249   30.4472 N   0  0  0  0  0  0  0  0  0  0  0  0
  2  1  1  6  0  0  0
  2  3  1  0  0  0  0
  2  5  1  0  0  0  0
  3  4  1  0  0  0  0
  3 17  1  0  0  0  0
  5  6  1  0  0  0  0
  7  6  1  1  0  0  0
  7  8  1  0  0  0  0
  7  9  1  0  0  0  0
 10  9  1  1  0  0  0
 10 11  1  0  0  0  0
 10 12  1  0  0  0  0
 11 16  1  0  0  0  0
 12 13  1  6  0  0  0
 12 14  1  0  0  0  0
 14 15  1  6  0  0  0
 14 16  1  0  0  0  0
 16 27  1  1  0  0  0
 18 19  2  0  0  0  0
 18 23  1  0  0  0  0
 19 20  1  0  0  0  0
 20 21  2  0  0  0  0
 21 22  1  0  0  0  0
 21 27  1  0  0  0  0
 22 23  2  0  0  0  0
 22 25  1  0  0  0  0
 23 24  1  0  0  0  0
 25 26  2  0  0  0  0
 26 27  1  0  0  0  0
M  END
>  <CHROM.1>
18.87973574,-56.92986962,174.38957356,-60.77494576,57.61397575,-76.36171144
-68.65902441,47.64888012,55.26369400,30.47023423,3.13090381,-1.13814368,2.56708220

>  <Name>
ligand

>  <RI>
0

>  <Rbt.Current_Directory>
/home/itssahil/PROJECTS/Mol_Feturizer/New_Systems/rnas/3GX2

>  <Rbt.Executable>
rbdock ($Id: //depot/dev/client3/rdock/2013.1/src/exe/rbdock.cxx#4 $)

>  <Rbt.Library>
libRbt.so (2013.1, Build901 2013/11/27)

>  <Rbt.Parameter_File>
/export/apps/rDock/src/rDock_2013.1_src/data/scripts/dock_solv.prm

>  <Rbt.Receptor>
prm/pocket_docking_3.prm

>  <SCORE>
-7.9598

>  <SCORE.INTER>
-5.11061

>  <SCORE.INTER.CONST>
1

>  <SCORE.INTER.POLAR>
0

>  <SCORE.INTER.ROT>
7

>  <SCORE.INTER.SOLV>
10.4115

>  <SCORE.INTER.VDW>
-15.1443

>  <SCORE.INTER.norm>
-0.189282

>  <SCORE.INTRA>
-2.85812

>  <SCORE.INTRA.DIHEDRAL>
-7.9639

>  <SCORE.INTRA.DIHEDRAL.0>
13.9704

>  <SCORE.INTRA.POLAR>
0

>  <SCORE.INTRA.POLAR.0>
0

>  <SCORE.INTRA.REPUL>
0

>  <SCORE.INTRA.REPUL.0>
0

>  <SCORE.INTRA.SOLV>
3.20701

>  <SCORE.INTRA.SOLV.lig_0>
-70.9758

>  <SCORE.INTRA.VDW>
-0.479675

>  <SCORE.INTRA.VDW.0>
-2.70686

>  <SCORE.INTRA.norm>
-0.105856

>  <SCORE.RESTR>
0.00893103

>  <SCORE.RESTR.CAVITY>
0.00893103

>  <SCORE.RESTR.norm>
0.000330779

>  <SCORE.SYSTEM>
0

>  <SCORE.SYSTEM.CONST>
0

>  <SCORE.SYSTEM.DIHEDRAL>
0

>  <SCORE.SYSTEM.SOLV>
0

>  <SCORE.SYSTEM.norm>
0

>  <SCORE.heavy>
27

>  <SCORE.norm>
-0.294807

>  <RMSD>
5.954

$$$$
ligand
 OpenBabel11021811473D
libRbt.so/2013.1/901 2013/11/27
 27 29  0  0  0  0  0  0  0  0999 V2000
   42.9584   54.9701   32.6854 N   0  0  0  0  0  0  0  0  0  0  0  0
   44.0621   54.0889   32.3108 C   0  0  2  0  0  0  0  0  0  0  0  0
   43.9551   53.5263   30.8919 C   0  0  0  0  0  0  0  0  0  0  0  0
   42.8775   53.3375   30.4336 O   0  0  0  0  0  0  0  0  0  0  0  0
   44.4100   53.0123   33.3601 C   0  0  0  0  0  0  0  0  0  0  0  0
   45.0513   53.4402   34.7095 C   0  0  0  0  0  0  0  0  0  0  0  0
   46.4845   54.0285   34.6178 C   0  0  2  0  0  0  0  0  0  0  0  0
   47.1439   54.1271   35.9199 N   0  0  0  0  0  0  0  0  0  0  0  0
   46.5231   55.3618   33.8091 C   0  0  0  0  0  0  0  0  0  0  0  0
   47.9121   56.0330   33.5395 C   0  0  1  0  0  0  0  0  0  0  0  0
   48.9872   55.2331   32.9638 O   0  0  0  0  0  0  0  0  0  0  0  0
   47.9081   57.3412   32.7002 C   0  0  1  0  0  0  0  0  0  0  0  0
   47.2903   58.5015   33.2722 O   0  0  0  0  0  0  0  0  0  0  0  0
   49.3499   57.4556   32.1151 C   0  0  1  0  0  0  0  0  0  0  0  0
   50.1883   58.4692   32.6158 O   0  0  0  0  0  0  0  0  0  0  0  0
   49.8428   56.0055   32.1458 C   0  0  2  0  0  0  0  0  0  0  0  0
   45.0464   53.7000   30.0174 O   0  0  0  0  0  0  0  0  0  0  0  0
   48.3505   52.0058   28.7898 N   0  0  0  0  0  0  0  0  0  0  0  0
   47.9647   52.1871   30.1229 C   0  0  0  0  0  0  0  0  0  0  0  0
   48.4687   53.3297   30.8814 N   0  0  0  0  0  0  0  0  0  0  0  0
   49.3178   54.2264   30.2897 C   0  0  0  0  0  0  0  0  0  0  0  0
   49.7026   54.0355   28.9482 C   0  0  0  0  0  0  0  0  0  0  0  0
   49.2005   52.8961   28.1932 C   0  0  0  0  0  0  0  0  0  0  0  0
   49.5984   52.6966   26.7991 N   0  0  0  0  0  0  0  0  0  0  0  0
   50.5911   55.1115   28.5827 N   0  0  0  0  0  0  0  0  0  0  0  0
   50.7409   55.9495   29.7127 C   0  0  0  0  0  0  0  0  0  0  0  0
   49.9588   55.4194   30.7791 N   0  0  0  0  0  0  0  0  0  0  0  0
  2  1  1  1  0  0  0
  2  3  1  0  0  0  0
  2  5  1  0  0  0  0
  3  4  1  0  0  0  0
  3 17  1  0  0  0  0
  5  6  1  0  0  0  0
  7  6  1  1  0  0  0
  7  8  1  0  0  0  0
  7  9  1  0  0  0  0
 10  9  1  6  0  0  0
 10 11  1  0  0  0  0
 10 12  1  0  0  0  0
 11 16  1  0  0  0  0
 12 13  1  1  0  0  0
 12 14  1  0  0  0  0
 14 15  1  1  0  0  0
 14 16  1  0  0  0  0
 16 27  1  6  0  0  0
 18 19  2  0  0  0  0
 18 23  1  0  0  0  0
 19 20  1  0  0  0  0
 20 21  2  0  0  0  0
 21 22  1  0  0  0  0
 21 27  1  0  0  0  0
 22 23  2  0  0  0  0
 22 25  1  0  0  0  0
 23 24  1  0  0  0  0
 25 26  2  0  0  0  0
 26 27  1  0  0  0  0
M  END
>  <CHROM.1>
-31.04475750,-69.15326800,-66.74661627,-166.96975563,-175.82602030,51.44896247
-0.22042318,47.49246395,54.72296649,31.57092788,2.70324008,0.45592220,0.93927962

>  <Name>
ligand

>  <RI>
0

>  <Rbt.Current_Directory>
/home/itssahil/PROJECTS/Mol_Feturizer/New_Systems/rnas/3GX2

>  <Rbt.Executable>
rbdock ($Id: //depot/dev/client3/rdock/2013.1/src/exe/rbdock.cxx#4 $)

>  <Rbt.Library>
libRbt.so (2013.1, Build901 2013/11/27)

>  <Rbt.Parameter_File>
/export/apps/rDock/src/rDock_2013.1_src/data/scripts/dock_solv.prm

>  <Rbt.Receptor>
prm/pocket_docking_6.prm

>  <SCORE>
-8.68058

>  <SCORE.INTER>
-5.05882

>  <SCORE.INTER.CONST>
1

>  <SCORE.INTER.POLAR>
0

>  <SCORE.INTER.ROT>
7

>  <SCORE.INTER.SOLV>
9.35232

>  <SCORE.INTER.VDW>
-14.7567

>  <SCORE.INTER.norm>
-0.187364

>  <SCORE.INTRA>
-3.62176

>  <SCORE.INTRA.DIHEDRAL>
-8.1834

>  <SCORE.INTRA.DIHEDRAL.0>
13.9704

>  <SCORE.INTRA.POLAR>
0

>  <SCORE.INTRA.POLAR.0>
0

>  <SCORE.INTRA.REPUL>
0

>  <SCORE.INTRA.REPUL.0>
0

>  <SCORE.INTRA.SOLV>
1.47409

>  <SCORE.INTRA.SOLV.lig_0>
-70.9758

>  <SCORE.INTRA.VDW>
-0.267102

>  <SCORE.INTRA.VDW.0>
-2.70686

>  <SCORE.INTRA.norm>
-0.134139

>  <SCORE.RESTR>
0

>  <SCORE.RESTR.CAVITY>
0

>  <SCORE.RESTR.norm>
0

>  <SCORE.SYSTEM>
0

>  <SCORE.SYSTEM.CONST>
0

>  <SCORE.SYSTEM.DIHEDRAL>
0

>  <SCORE.SYSTEM.SOLV>
0

>  <SCORE.SYSTEM.norm>
0

>  <SCORE.heavy>
27

>  <SCORE.norm>
-0.321503

>  <RMSD>
5.986

$$$$
ligand
 OpenBabel11021811473D
libRbt.so/2013.1/901 2013/11/27
 27 29  0  0  0  0  0  0  0  0999 V2000
   46.8414   56.8574   29.5580 N   0  0  0  0  0  0  0  0  0  0  0  0
   46.9858   58.2795   29.2548 C   0  0  2  0  0  0  0  0  0  0  0  0
   47.8192   58.5675   28.0043 C   0  0  0  0  0  0  0  0  0  0  0  0
   48.9848   58.3500   28.0340 O   0  0  0  0  0  0  0  0  0  0  0  0
   47.3859   59.1566   30.4597 C   0  0  0  0  0  0  0  0  0  0  0  0
   46.7003   58.9239   31.8348 C   0  0  0  0  0  0  0  0  0  0  0  0
   46.9894   57.5562   32.5089 C   0  0  2  0  0  0  0  0  0  0  0  0
   46.1135   57.2871   33.6493 N   0  0  0  0  0  0  0  0  0  0  0  0
   48.5022   57.3717   32.8414 C   0  0  0  0  0  0  0  0  0  0  0  0
   48.9799   55.9935   33.4112 C   0  0  1  0  0  0  0  0  0  0  0  0
   48.8571   55.7356   34.8415 O   0  0  0  0  0  0  0  0  0  0  0  0
   48.4053   54.7174   32.7350 C   0  0  1  0  0  0  0  0  0  0  0  0
   48.7784   54.4544   31.3761 O   0  0  0  0  0  0  0  0  0  0  0  0
   48.5575   53.5871   33.7996 C   0  0  1  0  0  0  0  0  0  0  0  0
   49.5090   52.5778   33.5612 O   0  0  0  0  0  0  0  0  0  0  0  0
   48.6223   54.3689   35.1154 C   0  0  2  0  0  0  0  0  0  0  0  0
   47.1652   58.6073   26.7568 O   0  0  0  0  0  0  0  0  0  0  0  0
   46.5742   52.8787   39.9187 N   0  0  0  0  0  0  0  0  0  0  0  0
   47.9205   52.8991   39.5365 C   0  0  0  0  0  0  0  0  0  0  0  0
   48.2927   53.3324   38.1917 N   0  0  0  0  0  0  0  0  0  0  0  0
   47.3260   53.7210   37.3030 C   0  0  0  0  0  0  0  0  0  0  0  0
   45.9734   53.6957   37.6951 C   0  0  0  0  0  0  0  0  0  0  0  0
   45.6031   53.2630   39.0353 C   0  0  0  0  0  0  0  0  0  0  0  0
   44.1984   53.2369   39.4447 N   0  0  0  0  0  0  0  0  0  0  0  0
   45.1782   54.1472   36.5794 N   0  0  0  0  0  0  0  0  0  0  0  0
   46.0598   54.4419   35.5129 C   0  0  0  0  0  0  0  0  0  0  0  0
   47.3942   54.1862   35.9420 N   0  0  0  0  0  0  0  0  0  0  0  0
  2  1  1  1  0  0  0
  2  3  1  0  0  0  0
  2  5  1  0  0  0  0
  3  4  1  0  0  0  0
  3 17  1  0  0  0  0
  5  6  1  0  0  0  0
  7  6  1  1  0  0  0
  7  8  1  0  0  0  0
  7  9  1  0  0  0  0
 10  9  1  6  0  0  0
 10 11  1  0  0  0  0
 10 12  1  0  0  0  0
 11 16  1  0  0  0  0
 12 13  1  6  0  0  0
 12 14  1  0  0  0  0
 14 15  1  6  0  0  0
 14 16  1  0  0  0  0
 16 27  1  6  0  0  0
 18 19  2  0  0  0  0
 18 23  1  0  0  0  0
 19 20  1  0  0  0  0
 20 21  2  0  0  0  0
 21 22  1  0  0  0  0
 21 27  1  0  0  0  0
 22 23  2  0  0  0  0
 22 25  1  0  0  0  0
 23 24  1  0  0  0  0
 25 26  2  0  0  0  0
 26 27  1  0  0  0  0
M  END
>  <CHROM.1>
-69.40416340,-43.13680763,65.38813252,-168.27238294,-174.74830293,-83.70326977
-112.52523268,47.44069806,55.53967676,33.80782474,1.44231214,0.65710165,-1.00916474

>  <Name>
ligand

>  <RI>
0

>  <Rbt.Current_Directory>
/home/itssahil/PROJECTS/Mol_Feturizer/New_Systems/rnas/3GX2

>  <Rbt.Executable>
rbdock ($Id: //depot/dev/client3/rdock/2013.1/src/exe/rbdock.cxx#4 $)

>  <Rbt.Library>
libRbt.so (2013.1, Build901 2013/11/27)

>  <Rbt.Parameter_File>
/export/apps/rDock/src/rDock_2013.1_src/data/scripts/dock_solv.prm

>  <Rbt.Receptor>
prm/pocket_docking_7.prm

>  <SCORE>
-11.7556

>  <SCORE.INTER>
-11.0949

>  <SCORE.INTER.CONST>
1

>  <SCORE.INTER.POLAR>
0

>  <SCORE.INTER.ROT>
7

>  <SCORE.INTER.SOLV>
14.2768

>  <SCORE.INTER.VDW>
-20.4222

>  <SCORE.INTER.norm>
-0.410921

>  <SCORE.INTRA>
-0.660786

>  <SCORE.INTRA.DIHEDRAL>
-5.99741

>  <SCORE.INTRA.DIHEDRAL.0>
13.9704

>  <SCORE.INTRA.POLAR>
0

>  <SCORE.INTRA.POLAR.0>
0

>  <SCORE.INTRA.REPUL>
0

>  <SCORE.INTRA.REPUL.0>
0

>  <SCORE.INTRA.SOLV>
4.96591

>  <SCORE.INTRA.SOLV.lig_0>
-70.9758

>  <SCORE.INTRA.VDW>
-0.145032

>  <SCORE.INTRA.VDW.0>
-2.70686

>  <SCORE.INTRA.norm>
-0.0244735

>  <SCORE.RESTR>
0

>  <SCORE.RESTR.CAVITY>
0

>  <SCORE.RESTR.norm>
0

>  <SCORE.SYSTEM>
0

>  <SCORE.SYSTEM.CONST>
0

>  <SCORE.SYSTEM.DIHEDRAL>
0

>  <SCORE.SYSTEM.SOLV>
0

>  <SCORE.SYSTEM.norm>
0

>  <SCORE.heavy>
27

>  <SCORE.norm>
-0.435394

>  <RMSD>
5.994

$$$$
ligand
 OpenBabel11021811473D
libRbt.so/2013.1/901 2013/11/27
 27 29  0  0  0  0  0  0  0  0999 V2000
   50.2212   51.9774   27.4415 N   0  0  0  0  0  0  0  0  0  0  0  0
   48.7810   51.9527   27.1964 C   0  0  2  0  0  0  0  0  0  0  0  0
   48.4027   51.9124   25.7143 C   0  0  0  0  0  0  0  0  0  0  0  0
   47.2549   51.8567   25.4205 O   0  0  0  0  0  0  0  0  0  0  0  0
   47.9748   52.9986   27.9948 C   0  0  0  0  0  0  0  0  0  0  0  0
   46.4219   52.9391   27.9806 C   0  0  0  0  0  0  0  0  0  0  0  0
   45.6976   54.0613   28.7709 C   0  0  2  0  0  0  0  0  0  0  0  0
   46.1517   55.4019   28.4016 N   0  0  0  0  0  0  0  0  0  0  0  0
   45.7230   53.8083   30.3099 C   0  0  0  0  0  0  0  0  0  0  0  0
   45.1069   54.8931   31.2565 C   0  0  1  0  0  0  0  0  0  0  0  0
   44.5465   54.4811   32.5384 O   0  0  0  0  0  0  0  0  0  0  0  0
   46.0028   56.1163   31.5986 C   0  0  1  0  0  0  0  0  0  0  0  0
   46.3379   57.0184   30.5360 O   0  0  0  0  0  0  0  0  0  0  0  0
   45.4228   56.6880   32.9294 C   0  0  1  0  0  0  0  0  0  0  0  0
   44.7566   57.9269   32.8821 O   0  0  0  0  0  0  0  0  0  0  0  0
   44.6959   55.4795   33.5277 C   0  0  2  0  0  0  0  0  0  0  0  0
   49.3231   52.4152   24.7732 O   0  0  0  0  0  0  0  0  0  0  0  0
   44.1572   53.4956   38.5537 N   0  0  0  0  0  0  0  0  0  0  0  0
   43.1386   53.9136   37.6897 C   0  0  0  0  0  0  0  0  0  0  0  0
   43.4698   54.4253   36.3617 N   0  0  0  0  0  0  0  0  0  0  0  0
   44.7767   54.4955   35.9589 C   0  0  0  0  0  0  0  0  0  0  0  0
   45.7959   54.0746   36.8354 C   0  0  0  0  0  0  0  0  0  0  0  0
   45.4651   53.5654   38.1589 C   0  0  0  0  0  0  0  0  0  0  0  0
   46.5224   53.1267   39.0705 N   0  0  0  0  0  0  0  0  0  0  0  0
   47.0611   54.2560   36.1665 N   0  0  0  0  0  0  0  0  0  0  0  0
   46.7976   54.7911   34.8836 C   0  0  0  0  0  0  0  0  0  0  0  0
   45.3889   54.9447   34.7354 N   0  0  0  0  0  0  0  0  0  0  0  0
  2  1  1  6  0  0  0
  2  3  1  0  0  0  0
  2  5  1  0  0  0  0
  3  4  1  0  0  0  0
  3 17  1  0  0  0  0
  5  6  1  0  0  0  0
  7  6  1  6  0  0  0
  7  8  1  0  0  0  0
  7  9  1  0  0  0  0
 10  9  1  1  0  0  0
 10 11  1  0  0  0  0
 10 12  1  0  0  0  0
 11 16  1  0  0  0  0
 12 13  1  6  0  0  0
 12 14  1  0  0  0  0
 14 15  1  6  0  0  0
 14 16  1  0  0  0  0
 16 27  1  1  0  0  0
 18 19  2  0  0  0  0
 18 23  1  0  0  0  0
 19 20  1  0  0  0  0
 20 21  2  0  0  0  0
 21 22  1  0  0  0  0
 21 27  1  0  0  0  0
 22 23  2  0  0  0  0
 22 25  1  0  0  0  0
 23 24  1  0  0  0  0
 25 26  2  0  0  0  0
 26 27  1  0  0  0  0
M  END
>  <CHROM.1>
178.14593985,-171.16458484,-177.91021816,51.91151156,176.45992129,151.47157300
-98.57911789,46.15610975,54.19615774,31.97235331,-1.03396039,-0.98493258
1.87402444

>  <Name>
ligand

>  <RI>
0

>  <Rbt.Current_Directory>
/home/itssahil/PROJECTS/Mol_Feturizer/New_Systems/rnas/3GX2

>  <Rbt.Executable>
rbdock ($Id: //depot/dev/client3/rdock/2013.1/src/exe/rbdock.cxx#4 $)

>  <Rbt.Library>
libRbt.so (2013.1, Build901 2013/11/27)

>  <Rbt.Parameter_File>
/export/apps/rDock/src/rDock_2013.1_src/data/scripts/dock_solv.prm

>  <Rbt.Receptor>
prm/pocket_docking_6.prm

>  <SCORE>
-6.30916

>  <SCORE.INTER>
-5.59288

>  <SCORE.INTER.CONST>
1

>  <SCORE.INTER.POLAR>
0

>  <SCORE.INTER.ROT>
7

>  <SCORE.INTER.SOLV>
12.5825

>  <SCORE.INTER.VDW>
-16.1894

>  <SCORE.INTER.norm>
-0.207144

>  <SCORE.INTRA>
-0.716278

>  <SCORE.INTRA.DIHEDRAL>
-6.37914

>  <SCORE.INTRA.DIHEDRAL.0>
13.9704

>  <SCORE.INTRA.POLAR>
0

>  <SCORE.INTRA.POLAR.0>
0

>  <SCORE.INTRA.REPUL>
0

>  <SCORE.INTRA.REPUL.0>
0

>  <SCORE.INTRA.SOLV>
2.52124

>  <SCORE.INTRA.SOLV.lig_0>
-70.9758

>  <SCORE.INTRA.VDW>
1.21267

>  <SCORE.INTRA.VDW.0>
-2.70686

>  <SCORE.INTRA.norm>
-0.0265288

>  <SCORE.RESTR>
0

>  <SCORE.RESTR.CAVITY>
0

>  <SCORE.RESTR.norm>
0

>  <SCORE.SYSTEM>
0

>  <SCORE.SYSTEM.CONST>
0

>  <SCORE.SYSTEM.DIHEDRAL>
0

>  <SCORE.SYSTEM.SOLV>
0

>  <SCORE.SYSTEM.norm>
0

>  <SCORE.heavy>
27

>  <SCORE.norm>
-0.233672

>  <RMSD>
6.003

$$$$
ligand
 OpenBabel11021811473D
libRbt.so/2013.1/901 2013/11/27
 27 29  0  0  0  0  0  0  0  0999 V2000
   49.3320   53.0808   27.4317 N   0  0  0  0  0  0  0  0  0  0  0  0
   49.5473   54.4246   27.9634 C   0  0  2  0  0  0  0  0  0  0  0  0
   49.6966   55.5027   26.8880 C   0  0  0  0  0  0  0  0  0  0  0  0
   49.3774   56.6150   27.1481 O   0  0  0  0  0  0  0  0  0  0  0  0
   50.6278   54.5163   29.0613 C   0  0  0  0  0  0  0  0  0  0  0  0
   50.4013   53.7929   30.4180 C   0  0  0  0  0  0  0  0  0  0  0  0
   49.1832   54.2810   31.2466 C   0  0  2  0  0  0  0  0  0  0  0  0
   49.1801   55.7289   31.4555 N   0  0  0  0  0  0  0  0  0  0  0  0
   49.0073   53.4711   32.5681 C   0  0  0  0  0  0  0  0  0  0  0  0
   47.6683   53.6231   33.3658 C   0  0  1  0  0  0  0  0  0  0  0  0
   47.5162   52.9247   34.6371 O   0  0  0  0  0  0  0  0  0  0  0  0
   47.1858   55.0715   33.6574 C   0  0  1  0  0  0  0  0  0  0  0  0
   46.7884   55.8816   32.5433 O   0  0  0  0  0  0  0  0  0  0  0  0
   46.2327   54.9450   34.8861 C   0  0  1  0  0  0  0  0  0  0  0  0
   44.8559   55.1510   34.6791 O   0  0  0  0  0  0  0  0  0  0  0  0
   46.6953   53.6388   35.5393 C   0  0  2  0  0  0  0  0  0  0  0  0
   50.6162   55.2847   25.8427 O   0  0  0  0  0  0  0  0  0  0  0  0
   46.1876   54.2472   40.9114 N   0  0  0  0  0  0  0  0  0  0  0  0
   45.1675   54.0233   39.9797 C   0  0  0  0  0  0  0  0  0  0  0  0
   45.4897   53.8834   38.5614 N   0  0  0  0  0  0  0  0  0  0  0  0
   46.7900   53.9692   38.1407 C   0  0  0  0  0  0  0  0  0  0  0  0
   47.8105   54.1966   39.0847 C   0  0  0  0  0  0  0  0  0  0  0  0
   47.4885   54.3366   40.4979 C   0  0  0  0  0  0  0  0  0  0  0  0
   48.5474   54.5720   41.4802 N   0  0  0  0  0  0  0  0  0  0  0  0
   49.0675   54.2438   38.3785 N   0  0  0  0  0  0  0  0  0  0  0  0
   48.7973   54.0462   37.0039 C   0  0  0  0  0  0  0  0  0  0  0  0
   47.3931   53.8723   36.8367 N   0  0  0  0  0  0  0  0  0  0  0  0
  2  1  1  6  0  0  0
  2  3  1  0  0  0  0
  2  5  1  0  0  0  0
  3  4  1  0  0  0  0
  3 17  1  0  0  0  0
  5  6  1  0  0  0  0
  7  6  1  1  0  0  0
  7  8  1  0  0  0  0
  7  9  1  0  0  0  0
 10  9  1  1  0  0  0
 10 11  1  0  0  0  0
 10 12  1  0  0  0  0
 11 16  1  0  0  0  0
 12 13  1  6  0  0  0
 12 14  1  0  0  0  0
 14 15  1  6  0  0  0
 14 16  1  0  0  0  0
 16 27  1  1  0  0  0
 18 19  2  0  0  0  0
 18 23  1  0  0  0  0
 19 20  1  0  0  0  0
 20 21  2  0  0  0  0
 21 22  1  0  0  0  0
 21 27  1  0  0  0  0
 22 23  2  0  0  0  0
 22 25  1  0  0  0  0
 23 24  1  0  0  0  0
 25 26  2  0  0  0  0
 26 27  1  0  0  0  0
M  END
>  <CHROM.1>
151.97419568,-64.83702571,-62.33193162,-52.54213707,-167.17627861,-176.93884451
-148.87383700,48.04099143,54.44624750,33.90703549,-1.32263754,-0.20641538
1.68805598

>  <Name>
ligand

>  <RI>
0

>  <Rbt.Current_Directory>
/home/itssahil/PROJECTS/Mol_Feturizer/New_Systems/rnas/3GX2

>  <Rbt.Executable>
rbdock ($Id: //depot/dev/client3/rdock/2013.1/src/exe/rbdock.cxx#4 $)

>  <Rbt.Library>
libRbt.so (2013.1, Build901 2013/11/27)

>  <Rbt.Parameter_File>
/export/apps/rDock/src/rDock_2013.1_src/data/scripts/dock_solv.prm

>  <Rbt.Receptor>
prm/pocket_docking_7.prm

>  <SCORE>
-12.8728

>  <SCORE.INTER>
-10.9683

>  <SCORE.INTER.CONST>
1

>  <SCORE.INTER.POLAR>
0

>  <SCORE.INTER.ROT>
7

>  <SCORE.INTER.SOLV>
11.0194

>  <SCORE.INTER.VDW>
-19.252

>  <SCORE.INTER.norm>
-0.406232

>  <SCORE.INTRA>
-1.90456

>  <SCORE.INTRA.DIHEDRAL>
-8.13022

>  <SCORE.INTRA.DIHEDRAL.0>
13.9704

>  <SCORE.INTRA.POLAR>
0

>  <SCORE.INTRA.POLAR.0>
0

>  <SCORE.INTRA.REPUL>
0

>  <SCORE.INTRA.REPUL.0>
0

>  <SCORE.INTRA.SOLV>
3.71178

>  <SCORE.INTRA.SOLV.lig_0>
-70.9758

>  <SCORE.INTRA.VDW>
0.304661

>  <SCORE.INTRA.VDW.0>
-2.70686

>  <SCORE.INTRA.norm>
-0.0705393

>  <SCORE.RESTR>
0

>  <SCORE.RESTR.CAVITY>
0

>  <SCORE.RESTR.norm>
0

>  <SCORE.SYSTEM>
0

>  <SCORE.SYSTEM.CONST>
0

>  <SCORE.SYSTEM.DIHEDRAL>
0

>  <SCORE.SYSTEM.SOLV>
0

>  <SCORE.SYSTEM.norm>
0

>  <SCORE.heavy>
27

>  <SCORE.norm>
-0.476771

>  <RMSD>
6.008

$$$$
ligand
 OpenBabel11021811473D
libRbt.so/2013.1/901 2013/11/27
 27 29  0  0  0  0  0  0  0  0999 V2000
   46.2116   58.6110   31.8978 N   0  0  0  0  0  0  0  0  0  0  0  0
   47.1886   59.5486   32.4468 C   0  0  2  0  0  0  0  0  0  0  0  0
   47.3773   60.8135   31.6068 C   0  0  0  0  0  0  0  0  0  0  0  0
   48.4797   61.1915   31.3859 O   0  0  0  0  0  0  0  0  0  0  0  0
   48.5245   58.9070   32.8767 C   0  0  0  0  0  0  0  0  0  0  0  0
   49.4210   58.2211   31.8085 C   0  0  0  0  0  0  0  0  0  0  0  0
   48.7576   57.0647   31.0142 C   0  0  2  0  0  0  0  0  0  0  0  0
   48.3542   55.9464   31.8667 N   0  0  0  0  0  0  0  0  0  0  0  0
   49.6169   56.6225   29.7897 C   0  0  0  0  0  0  0  0  0  0  0  0
   48.9083   55.8771   28.6088 C   0  0  1  0  0  0  0  0  0  0  0  0
   48.1175   54.6853   28.8941 O   0  0  0  0  0  0  0  0  0  0  0  0
   48.0006   56.7337   27.6824 C   0  0  1  0  0  0  0  0  0  0  0  0
   48.6279   57.7357   26.8714 O   0  0  0  0  0  0  0  0  0  0  0  0
   47.0213   55.7177   27.0169 C   0  0  1  0  0  0  0  0  0  0  0  0
   47.1772   55.4513   25.6438 O   0  0  0  0  0  0  0  0  0  0  0  0
   47.0290   54.5457   28.0034 C   0  0  2  0  0  0  0  0  0  0  0  0
   46.3365   61.2055   30.7415 O   0  0  0  0  0  0  0  0  0  0  0  0
   42.3068   56.8902   29.3039 N   0  0  0  0  0  0  0  0  0  0  0  0
   43.3274   57.4174   28.5044 C   0  0  0  0  0  0  0  0  0  0  0  0
   44.5400   56.6400   28.2591 N   0  0  0  0  0  0  0  0  0  0  0  0
   44.6800   55.3938   28.8090 C   0  0  0  0  0  0  0  0  0  0  0  0
   43.6489   54.8714   29.6140 C   0  0  0  0  0  0  0  0  0  0  0  0
   42.4410   55.6470   29.8587 C   0  0  0  0  0  0  0  0  0  0  0  0
   41.3683   55.1057   30.6939 N   0  0  0  0  0  0  0  0  0  0  0  0
   44.0531   53.5603   30.0596 N   0  0  0  0  0  0  0  0  0  0  0  0
   45.3345   53.2978   29.5203 C   0  0  0  0  0  0  0  0  0  0  0  0
   45.7389   54.4203   28.7415 N   0  0  0  0  0  0  0  0  0  0  0  0
  2  1  1  6  0  0  0
  2  3  1  0  0  0  0
  2  5  1  0  0  0  0
  3  4  1  0  0  0  0
  3 17  1  0  0  0  0
  5  6  1  0  0  0  0
  7  6  1  1  0  0  0
  7  8  1  0  0  0  0
  7  9  1  0  0  0  0
 10  9  1  1  0  0  0
 10 11  1  0  0  0  0
 10 12  1  0  0  0  0
 11 16  1  0  0  0  0
 12 13  1  6  0  0  0
 12 14  1  0  0  0  0
 14 15  1  6  0  0  0
 14 16  1  0  0  0  0
 16 27  1  1  0  0  0
 18 19  2  0  0  0  0
 18 23  1  0  0  0  0
 19 20  1  0  0  0  0
 20 21  2  0  0  0  0
 21 22  1  0  0  0  0
 21 27  1  0  0  0  0
 22 23  2  0  0  0  0
 22 25  1  0  0  0  0
 23 24  1  0  0  0  0
 25 26  2  0  0  0  0
 26 27  1  0  0  0  0
M  END
>  <CHROM.1>
-134.39876260,62.91055607,-57.97046743,-61.86794101,-157.89894473,-53.81881247
109.76248484,46.47096808,56.81052519,29.67514252,0.89248034,0.22013686,0.69724498

>  <Name>
ligand

>  <RI>
0

>  <Rbt.Current_Directory>
/home/itssahil/PROJECTS/Mol_Feturizer/New_Systems/rnas/3GX2

>  <Rbt.Executable>
rbdock ($Id: //depot/dev/client3/rdock/2013.1/src/exe/rbdock.cxx#4 $)

>  <Rbt.Library>
libRbt.so (2013.1, Build901 2013/11/27)

>  <Rbt.Parameter_File>
/export/apps/rDock/src/rDock_2013.1_src/data/scripts/dock_solv.prm

>  <Rbt.Receptor>
prm/pocket_docking_6.prm

>  <SCORE>
-10.1001

>  <SCORE.INTER>
-9.26467

>  <SCORE.INTER.CONST>
1

>  <SCORE.INTER.POLAR>
0

>  <SCORE.INTER.ROT>
7

>  <SCORE.INTER.SOLV>
13.9804

>  <SCORE.INTER.VDW>
-19.1032

>  <SCORE.INTER.norm>
-0.343136

>  <SCORE.INTRA>
-0.83546

>  <SCORE.INTRA.DIHEDRAL>
-7.49437

>  <SCORE.INTRA.DIHEDRAL.0>
13.9704

>  <SCORE.INTRA.POLAR>
0

>  <SCORE.INTRA.POLAR.0>
0

>  <SCORE.INTRA.REPUL>
0

>  <SCORE.INTRA.REPUL.0>
0

>  <SCORE.INTRA.SOLV>
4.7363

>  <SCORE.INTRA.SOLV.lig_0>
-70.9758

>  <SCORE.INTRA.VDW>
0.543577

>  <SCORE.INTRA.VDW.0>
-2.70686

>  <SCORE.INTRA.norm>
-0.0309429

>  <SCORE.RESTR>
0

>  <SCORE.RESTR.CAVITY>
0

>  <SCORE.RESTR.norm>
0

>  <SCORE.SYSTEM>
0

>  <SCORE.SYSTEM.CONST>
0

>  <SCORE.SYSTEM.DIHEDRAL>
0

>  <SCORE.SYSTEM.SOLV>
0

>  <SCORE.SYSTEM.norm>
0

>  <SCORE.heavy>
27

>  <SCORE.norm>
-0.374079

>  <RMSD>
6.014

$$$$
ligand
 OpenBabel11021811473D
libRbt.so/2013.1/901 2013/11/27
 27 29  0  0  0  0  0  0  0  0999 V2000
   47.5795   52.4697   35.4022 N   0  0  0  0  0  0  0  0  0  0  0  0
   47.6722   53.8909   35.0755 C   0  0  2  0  0  0  0  0  0  0  0  0
   46.4841   54.4233   34.2716 C   0  0  0  0  0  0  0  0  0  0  0  0
   46.0564   55.4986   34.5315 O   0  0  0  0  0  0  0  0  0  0  0  0
   49.0343   54.3307   34.4990 C   0  0  0  0  0  0  0  0  0  0  0  0
   49.3514   55.8457   34.3598 C   0  0  0  0  0  0  0  0  0  0  0  0
   48.6363   56.5793   33.1941 C   0  0  2  0  0  0  0  0  0  0  0  0
   49.1631   56.2097   31.8803 N   0  0  0  0  0  0  0  0  0  0  0  0
   48.5760   58.1219   33.4179 C   0  0  0  0  0  0  0  0  0  0  0  0
   47.9865   59.0204   32.2788 C   0  0  1  0  0  0  0  0  0  0  0  0
   48.7087   59.1311   31.0165 O   0  0  0  0  0  0  0  0  0  0  0  0
   46.5139   58.7490   31.8621 C   0  0  1  0  0  0  0  0  0  0  0  0
   45.4849   59.0287   32.8203 O   0  0  0  0  0  0  0  0  0  0  0  0
   46.3859   59.3225   30.4169 C   0  0  1  0  0  0  0  0  0  0  0  0
   45.6115   60.4832   30.2322 O   0  0  0  0  0  0  0  0  0  0  0  0
   47.8351   59.3134   29.9204 C   0  0  2  0  0  0  0  0  0  0  0  0
   46.2474   53.8875   32.9900 O   0  0  0  0  0  0  0  0  0  0  0  0
   45.6126   55.5256   26.7266 N   0  0  0  0  0  0  0  0  0  0  0  0
   44.9620   56.3416   27.6592 C   0  0  0  0  0  0  0  0  0  0  0  0
   45.7249   57.3142   28.4384 N   0  0  0  0  0  0  0  0  0  0  0  0
   47.0771   57.4308   28.2570 C   0  0  0  0  0  0  0  0  0  0  0  0
   47.7244   56.6044   27.3178 C   0  0  0  0  0  0  0  0  0  0  0  0
   46.9636   55.6348   26.5421 C   0  0  0  0  0  0  0  0  0  0  0  0
   47.6342   54.7761   25.5652 N   0  0  0  0  0  0  0  0  0  0  0  0
   49.1293   56.9314   27.3309 N   0  0  0  0  0  0  0  0  0  0  0  0
   49.3242   57.9574   28.2853 C   0  0  0  0  0  0  0  0  0  0  0  0
   48.0651   58.2817   28.8680 N   0  0  0  0  0  0  0  0  0  0  0  0
  2  1  1  6  0  0  0
  2  3  1  0  0  0  0
  2  5  1  0  0  0  0
  3  4  1  0  0  0  0
  3 17  1  0  0  0  0
  5  6  1  0  0  0  0
  7  6  1  1  0  0  0
  7  8  1  0  0  0  0
  7  9  1  0  0  0  0
 10  9  1  1  0  0  0
 10 11  1  0  0  0  0
 10 12  1  0  0  0  0
 11 16  1  0  0  0  0
 12 13  1  1  0  0  0
 12 14  1  0  0  0  0
 14 15  1  1  0  0  0
 14 16  1  0  0  0  0
 16 27  1  6  0  0  0
 18 19  2  0  0  0  0
 18 23  1  0  0  0  0
 19 20  1  0  0  0  0
 20 21  2  0  0  0  0
 21 22  1  0  0  0  0
 21 27  1  0  0  0  0
 22 23  2  0  0  0  0
 22 25  1  0  0  0  0
 23 24  1  0  0  0  0
 25 26  2  0  0  0  0
 26 27  1  0  0  0  0
M  END
>  <CHROM.1>
140.08563725,-168.69971113,-74.88003684,-71.64118548,175.23278294,-66.92675325
128.04594154,47.37022818,56.79310594,30.95539316,0.01157425,1.49300531,-2.83752182

>  <Name>
ligand

>  <RI>
0

>  <Rbt.Current_Directory>
/home/itssahil/PROJECTS/Mol_Feturizer/New_Systems/rnas/3GX2

>  <Rbt.Executable>
rbdock ($Id: //depot/dev/client3/rdock/2013.1/src/exe/rbdock.cxx#4 $)

>  <Rbt.Library>
libRbt.so (2013.1, Build901 2013/11/27)

>  <Rbt.Parameter_File>
/export/apps/rDock/src/rDock_2013.1_src/data/scripts/dock_solv.prm

>  <Rbt.Receptor>
prm/pocket_docking_3.prm

>  <SCORE>
-8.64348

>  <SCORE.INTER>
-6.46116

>  <SCORE.INTER.CONST>
1

>  <SCORE.INTER.POLAR>
0

>  <SCORE.INTER.ROT>
7

>  <SCORE.INTER.SOLV>
16.7033

>  <SCORE.INTER.VDW>
-18.1419

>  <SCORE.INTER.norm>
-0.239302

>  <SCORE.INTRA>
-2.18232

>  <SCORE.INTRA.DIHEDRAL>
-7.03807

>  <SCORE.INTRA.DIHEDRAL.0>
13.9704

>  <SCORE.INTRA.POLAR>
0

>  <SCORE.INTRA.POLAR.0>
0

>  <SCORE.INTRA.REPUL>
0

>  <SCORE.INTRA.REPUL.0>
0

>  <SCORE.INTRA.SOLV>
3.87939

>  <SCORE.INTRA.SOLV.lig_0>
-70.9758

>  <SCORE.INTRA.VDW>
-0.602979

>  <SCORE.INTRA.VDW.0>
-2.70686

>  <SCORE.INTRA.norm>
-0.0808266

>  <SCORE.RESTR>
0

>  <SCORE.RESTR.CAVITY>
0

>  <SCORE.RESTR.norm>
0

>  <SCORE.SYSTEM>
0

>  <SCORE.SYSTEM.CONST>
0

>  <SCORE.SYSTEM.DIHEDRAL>
0

>  <SCORE.SYSTEM.SOLV>
0

>  <SCORE.SYSTEM.norm>
0

>  <SCORE.heavy>
27

>  <SCORE.norm>
-0.320129

>  <RMSD>
6.038

$$$$
ligand
 OpenBabel11021811473D
libRbt.so/2013.1/901 2013/11/27
 27 29  0  0  0  0  0  0  0  0999 V2000
   48.8456   53.3331   32.8817 N   0  0  0  0  0  0  0  0  0  0  0  0
   48.3631   53.4935   34.2515 C   0  0  2  0  0  0  0  0  0  0  0  0
   46.8897   53.8947   34.3491 C   0  0  0  0  0  0  0  0  0  0  0  0
   46.4366   54.6067   33.5158 O   0  0  0  0  0  0  0  0  0  0  0  0
   49.2785   54.3397   35.1608 C   0  0  0  0  0  0  0  0  0  0  0  0
   49.1842   55.8901   35.1089 C   0  0  0  0  0  0  0  0  0  0  0  0
   49.1151   56.5137   33.6895 C   0  0  2  0  0  0  0  0  0  0  0  0
   50.2011   56.0662   32.8175 N   0  0  0  0  0  0  0  0  0  0  0  0
   48.9659   58.0657   33.7347 C   0  0  0  0  0  0  0  0  0  0  0  0
   48.4030   58.8001   32.4713 C   0  0  1  0  0  0  0  0  0  0  0  0
   49.1373   58.7137   31.2141 O   0  0  0  0  0  0  0  0  0  0  0  0
   46.9288   58.4976   32.0824 C   0  0  1  0  0  0  0  0  0  0  0  0
   45.8978   58.9316   32.9789 O   0  0  0  0  0  0  0  0  0  0  0  0
   46.8236   58.8578   30.5681 C   0  0  1  0  0  0  0  0  0  0  0  0
   46.0732   59.9931   30.2090 O   0  0  0  0  0  0  0  0  0  0  0  0
   48.2763   58.7509   30.0938 C   0  0  2  0  0  0  0  0  0  0  0  0
   46.0178   53.0710   35.0888 O   0  0  0  0  0  0  0  0  0  0  0  0
   47.8090   53.3736   29.4988 N   0  0  0  0  0  0  0  0  0  0  0  0
   47.4411   54.1425   30.6088 C   0  0  0  0  0  0  0  0  0  0  0  0
   47.6413   55.5899   30.5951 N   0  0  0  0  0  0  0  0  0  0  0  0
   48.1874   56.1974   29.4960 C   0  0  0  0  0  0  0  0  0  0  0  0
   48.5566   55.4159   28.3838 C   0  0  0  0  0  0  0  0  0  0  0  0
   48.3575   53.9735   28.3985 C   0  0  0  0  0  0  0  0  0  0  0  0
   48.7396   53.1601   27.2436 N   0  0  0  0  0  0  0  0  0  0  0  0
   49.1003   56.2985   27.3806 N   0  0  0  0  0  0  0  0  0  0  0  0
   49.0585   57.6152   27.8966 C   0  0  0  0  0  0  0  0  0  0  0  0
   48.4948   57.5736   29.2044 N   0  0  0  0  0  0  0  0  0  0  0  0
  2  1  1  6  0  0  0
  2  3  1  0  0  0  0
  2  5  1  0  0  0  0
  3  4  1  0  0  0  0
  3 17  1  0  0  0  0
  5  6  1  0  0  0  0
  7  6  1  1  0  0  0
  7  8  1  0  0  0  0
  7  9  1  0  0  0  0
 10  9  1  1  0  0  0
 10 11  1  0  0  0  0
 10 12  1  0  0  0  0
 11 16  1  0  0  0  0
 12 13  1  1  0  0  0
 12 14  1  0  0  0  0
 14 15  1  1  0  0  0
 14 16  1  0  0  0  0
 16 27  1  1  0  0  0
 18 19  2  0  0  0  0
 18 23  1  0  0  0  0
 19 20  1  0  0  0  0
 20 21  2  0  0  0  0
 21 22  1  0  0  0  0
 21 27  1  0  0  0  0
 22 23  2  0  0  0  0
 22 25  1  0  0  0  0
 23 24  1  0  0  0  0
 25 26  2  0  0  0  0
 26 27  1  0  0  0  0
M  END
>  <CHROM.1>
-34.29816109,82.26623660,-44.62594368,-53.01250544,-159.50300246,-61.64154565
68.38500547,48.04410306,56.14387977,31.52026400,-1.96457201,1.43467171,-0.74633407

>  <Name>
ligand

>  <RI>
0

>  <Rbt.Current_Directory>
/home/itssahil/PROJECTS/Mol_Feturizer/New_Systems/rnas/3GX2

>  <Rbt.Executable>
rbdock ($Id: //depot/dev/client3/rdock/2013.1/src/exe/rbdock.cxx#4 $)

>  <Rbt.Library>
libRbt.so (2013.1, Build901 2013/11/27)

>  <Rbt.Parameter_File>
/export/apps/rDock/src/rDock_2013.1_src/data/scripts/dock_solv.prm

>  <Rbt.Receptor>
prm/pocket_docking_2.prm

>  <SCORE>
-5.80466

>  <SCORE.INTER>
-5.08203

>  <SCORE.INTER.CONST>
1

>  <SCORE.INTER.POLAR>
0

>  <SCORE.INTER.ROT>
7

>  <SCORE.INTER.SOLV>
13.1781

>  <SCORE.INTER.VDW>
-16.0474

>  <SCORE.INTER.norm>
-0.188223

>  <SCORE.INTRA>
-1.27897

>  <SCORE.INTRA.DIHEDRAL>
-5.62589

>  <SCORE.INTRA.DIHEDRAL.0>
13.9704

>  <SCORE.INTRA.POLAR>
0

>  <SCORE.INTRA.POLAR.0>
0

>  <SCORE.INTRA.REPUL>
0

>  <SCORE.INTRA.REPUL.0>
0

>  <SCORE.INTRA.SOLV>
7.14496

>  <SCORE.INTRA.SOLV.lig_0>
-70.9758

>  <SCORE.INTRA.VDW>
-2.03851

>  <SCORE.INTRA.VDW.0>
-2.70686

>  <SCORE.INTRA.norm>
-0.0473693

>  <SCORE.RESTR>
0.55634

>  <SCORE.RESTR.CAVITY>
0.55634

>  <SCORE.RESTR.norm>
0.0206052

>  <SCORE.SYSTEM>
0

>  <SCORE.SYSTEM.CONST>
0

>  <SCORE.SYSTEM.DIHEDRAL>
0

>  <SCORE.SYSTEM.SOLV>
0

>  <SCORE.SYSTEM.norm>
0

>  <SCORE.heavy>
27

>  <SCORE.norm>
-0.214987

>  <RMSD>
6.052

$$$$
ligand
 OpenBabel11021811483D
libRbt.so/2013.1/901 2013/11/27
 27 29  0  0  0  0  0  0  0  0999 V2000
   45.3841   57.9202   30.1264 N   0  0  0  0  0  0  0  0  0  0  0  0
   45.8646   57.6715   31.4837 C   0  0  2  0  0  0  0  0  0  0  0  0
   44.7546   57.3561   32.4886 C   0  0  0  0  0  0  0  0  0  0  0  0
   43.7887   56.7817   32.1090 O   0  0  0  0  0  0  0  0  0  0  0  0
   46.8740   58.7134   32.0096 C   0  0  0  0  0  0  0  0  0  0  0  0
   47.8742   58.3106   33.1287 C   0  0  0  0  0  0  0  0  0  0  0  0
   49.0012   57.3316   32.7046 C   0  0  2  0  0  0  0  0  0  0  0  0
   49.7102   57.7665   31.5012 N   0  0  0  0  0  0  0  0  0  0  0  0
   48.4996   55.8569   32.6207 C   0  0  0  0  0  0  0  0  0  0  0  0
   48.1644   55.1041   33.9523 C   0  0  1  0  0  0  0  0  0  0  0  0
   47.0069   55.5248   34.7336 O   0  0  0  0  0  0  0  0  0  0  0  0
   48.0374   53.5571   33.8709 C   0  0  1  0  0  0  0  0  0  0  0  0
   49.2186   52.8038   33.5670 O   0  0  0  0  0  0  0  0  0  0  0  0
   47.1719   53.1527   35.1044 C   0  0  1  0  0  0  0  0  0  0  0  0
   47.8019   52.4624   36.1567 O   0  0  0  0  0  0  0  0  0  0  0  0
   46.4083   54.4431   35.4187 C   0  0  2  0  0  0  0  0  0  0  0  0
   45.0842   57.3039   33.8576 O   0  0  0  0  0  0  0  0  0  0  0  0
   41.3638   53.8754   37.3470 N   0  0  0  0  0  0  0  0  0  0  0  0
   42.5539   53.9377   38.0810 C   0  0  0  0  0  0  0  0  0  0  0  0
   43.8321   54.0931   37.3904 N   0  0  0  0  0  0  0  0  0  0  0  0
   43.8687   54.1799   36.0242 C   0  0  0  0  0  0  0  0  0  0  0  0
   42.6665   54.1144   35.2930 C   0  0  0  0  0  0  0  0  0  0  0  0
   41.3931   53.9587   35.9820 C   0  0  0  0  0  0  0  0  0  0  0  0
   40.1431   53.8914   35.2241 N   0  0  0  0  0  0  0  0  0  0  0  0
   42.9911   54.2278   33.8921 N   0  0  0  0  0  0  0  0  0  0  0  0
   44.3956   54.3592   33.7843 C   0  0  0  0  0  0  0  0  0  0  0  0
   44.9567   54.3338   35.0937 N   0  0  0  0  0  0  0  0  0  0  0  0
  2  1  1  6  0  0  0
  2  3  1  0  0  0  0
  2  5  1  0  0  0  0
  3  4  1  0  0  0  0
  3 17  1  0  0  0  0
  5  6  1  0  0  0  0
  7  6  1  6  0  0  0
  7  8  1  0  0  0  0
  7  9  1  0  0  0  0
 10  9  1  6  0  0  0
 10 11  1  0  0  0  0
 10 12  1  0  0  0  0
 11 16  1  0  0  0  0
 12 13  1  1  0  0  0
 12 14  1  0  0  0  0
 14 15  1  1  0  0  0
 14 16  1  0  0  0  0
 16 27  1  6  0  0  0
 18 19  2  0  0  0  0
 18 23  1  0  0  0  0
 19 20  1  0  0  0  0
 20 21  2  0  0  0  0
 21 22  1  0  0  0  0
 21 27  1  0  0  0  0
 22 23  2  0  0  0  0
 22 25  1  0  0  0  0
 23 24  1  0  0  0  0
 25 26  2  0  0  0  0
 26 27  1  0  0  0  0
M  END
>  <CHROM.1>
32.22098749,-155.41137949,70.85121093,50.61881566,-70.99934939,68.70289345
-131.87976252,45.57985421,55.31704497,34.14725207,0.72695048,0.15398141,-0.73652547

>  <Name>
ligand

>  <RI>
0

>  <Rbt.Current_Directory>
/home/itssahil/PROJECTS/Mol_Feturizer/New_Systems/rnas/3GX2

>  <Rbt.Executable>
rbdock ($Id: //depot/dev/client3/rdock/2013.1/src/exe/rbdock.cxx#4 $)

>  <Rbt.Library>
libRbt.so (2013.1, Build901 2013/11/27)

>  <Rbt.Parameter_File>
/export/apps/rDock/src/rDock_2013.1_src/data/scripts/dock_solv.prm

>  <Rbt.Receptor>
prm/pocket_docking_8.prm

>  <SCORE>
-12.5669

>  <SCORE.INTER>
-9.14884

>  <SCORE.INTER.CONST>
1

>  <SCORE.INTER.POLAR>
0

>  <SCORE.INTER.ROT>
7

>  <SCORE.INTER.SOLV>
12.9664

>  <SCORE.INTER.VDW>
-18.688

>  <SCORE.INTER.norm>
-0.338846

>  <SCORE.INTRA>
-3.4181

>  <SCORE.INTRA.DIHEDRAL>
-5.85876

>  <SCORE.INTRA.DIHEDRAL.0>
13.9704

>  <SCORE.INTRA.POLAR>
0

>  <SCORE.INTRA.POLAR.0>
0

>  <SCORE.INTRA.REPUL>
0

>  <SCORE.INTRA.REPUL.0>
0

>  <SCORE.INTRA.SOLV>
1.69769

>  <SCORE.INTRA.SOLV.lig_0>
-70.9758

>  <SCORE.INTRA.VDW>
-1.33756

>  <SCORE.INTRA.VDW.0>
-2.70686

>  <SCORE.INTRA.norm>
-0.126596

>  <SCORE.RESTR>
0

>  <SCORE.RESTR.CAVITY>
0

>  <SCORE.RESTR.norm>
0

>  <SCORE.SYSTEM>
0

>  <SCORE.SYSTEM.CONST>
0

>  <SCORE.SYSTEM.DIHEDRAL>
0

>  <SCORE.SYSTEM.SOLV>
0

>  <SCORE.SYSTEM.norm>
0

>  <SCORE.heavy>
27

>  <SCORE.norm>
-0.465442

>  <RMSD>
6.056

$$$$
ligand
 OpenBabel11021811473D
libRbt.so/2013.1/901 2013/11/27
 27 29  0  0  0  0  0  0  0  0999 V2000
   47.1092   55.2677   34.0218 N   0  0  0  0  0  0  0  0  0  0  0  0
   48.4239   54.7783   34.4306 C   0  0  2  0  0  0  0  0  0  0  0  0
   48.5463   54.5028   35.9307 C   0  0  0  0  0  0  0  0  0  0  0  0
   48.4231   53.3882   36.3172 O   0  0  0  0  0  0  0  0  0  0  0  0
   49.6135   55.5839   33.8678 C   0  0  0  0  0  0  0  0  0  0  0  0
   49.9361   55.5096   32.3494 C   0  0  0  0  0  0  0  0  0  0  0  0
   49.0019   56.3306   31.4212 C   0  0  2  0  0  0  0  0  0  0  0  0
   48.6788   55.6326   30.1769 N   0  0  0  0  0  0  0  0  0  0  0  0
   49.5273   57.7813   31.1910 C   0  0  0  0  0  0  0  0  0  0  0  0
   48.5190   58.8719   30.6949 C   0  0  1  0  0  0  0  0  0  0  0  0
   47.6215   58.5583   29.5888 O   0  0  0  0  0  0  0  0  0  0  0  0
   47.6011   59.5195   31.7691 C   0  0  1  0  0  0  0  0  0  0  0  0
   48.2189   60.3338   32.7744 O   0  0  0  0  0  0  0  0  0  0  0  0
   46.3795   60.0814   30.9778 C   0  0  1  0  0  0  0  0  0  0  0  0
   46.2503   61.4783   30.8653 O   0  0  0  0  0  0  0  0  0  0  0  0
   46.3850   59.2338   29.7018 C   0  0  2  0  0  0  0  0  0  0  0  0
   49.2542   55.4254   36.7265 O   0  0  0  0  0  0  0  0  0  0  0  0
   43.3336   55.6765   32.4444 N   0  0  0  0  0  0  0  0  0  0  0  0
   44.4126   56.4245   32.9293 C   0  0  0  0  0  0  0  0  0  0  0  0
   45.1251   57.3409   32.0419 N   0  0  0  0  0  0  0  0  0  0  0  0
   44.7381   57.4714   30.7349 C   0  0  0  0  0  0  0  0  0  0  0  0
   43.6523   56.7135   30.2544 C   0  0  0  0  0  0  0  0  0  0  0  0
   42.9432   55.7998   31.1392 C   0  0  0  0  0  0  0  0  0  0  0  0
   41.8144   55.0123   30.6421 N   0  0  0  0  0  0  0  0  0  0  0  0
   43.4630   57.0403   28.8622 N   0  0  0  0  0  0  0  0  0  0  0  0
   44.4427   57.9971   28.5069 C   0  0  0  0  0  0  0  0  0  0  0  0
   45.2405   58.2784   29.6534 N   0  0  0  0  0  0  0  0  0  0  0  0
  2  1  1  1  0  0  0
  2  3  1  0  0  0  0
  2  5  1  0  0  0  0
  3  4  1  0  0  0  0
  3 17  1  0  0  0  0
  5  6  1  0  0  0  0
  7  6  1  6  0  0  0
  7  8  1  0  0  0  0
  7  9  1  0  0  0  0
 10  9  1  1  0  0  0
 10 11  1  0  0  0  0
 10 12  1  0  0  0  0
 11 16  1  0  0  0  0
 12 13  1  6  0  0  0
 12 14  1  0  0  0  0
 14 15  1  6  0  0  0
 14 16  1  0  0  0  0
 16 27  1  1  0  0  0
 18 19  2  0  0  0  0
 18 23  1  0  0  0  0
 19 20  1  0  0  0  0
 20 21  2  0  0  0  0
 21 22  1  0  0  0  0
 21 27  1  0  0  0  0
 22 23  2  0  0  0  0
 22 25  1  0  0  0  0
 23 24  1  0  0  0  0
 25 26  2  0  0  0  0
 26 27  1  0  0  0  0
M  END
>  <CHROM.1>
98.40524808,-69.64589040,76.50962643,-140.36625535,-160.15425827,-46.55705033
80.63961714,46.69982717,57.05296641,31.91550337,0.88713773,0.39096759,2.43475273

>  <Name>
ligand

>  <RI>
0

>  <Rbt.Current_Directory>
/home/itssahil/PROJECTS/Mol_Feturizer/New_Systems/rnas/3GX2

>  <Rbt.Executable>
rbdock ($Id: //depot/dev/client3/rdock/2013.1/src/exe/rbdock.cxx#4 $)

>  <Rbt.Library>
libRbt.so (2013.1, Build901 2013/11/27)

>  <Rbt.Parameter_File>
/export/apps/rDock/src/rDock_2013.1_src/data/scripts/dock_solv.prm

>  <Rbt.Receptor>
prm/pocket_docking_7.prm

>  <SCORE>
-11.281

>  <SCORE.INTER>
-10.9657

>  <SCORE.INTER.CONST>
1

>  <SCORE.INTER.POLAR>
0

>  <SCORE.INTER.ROT>
7

>  <SCORE.INTER.SOLV>
13.5145

>  <SCORE.INTER.VDW>
-20.082

>  <SCORE.INTER.norm>
-0.406139

>  <SCORE.INTRA>
-0.31529

>  <SCORE.INTRA.DIHEDRAL>
-2.02459

>  <SCORE.INTRA.DIHEDRAL.0>
13.9704

>  <SCORE.INTRA.POLAR>
0

>  <SCORE.INTRA.POLAR.0>
0

>  <SCORE.INTRA.REPUL>
0

>  <SCORE.INTRA.REPUL.0>
0

>  <SCORE.INTRA.SOLV>
3.04034

>  <SCORE.INTRA.SOLV.lig_0>
-70.9758

>  <SCORE.INTRA.VDW>
-0.823165

>  <SCORE.INTRA.VDW.0>
-2.70686

>  <SCORE.INTRA.norm>
-0.0116774

>  <SCORE.RESTR>
0

>  <SCORE.RESTR.CAVITY>
0

>  <SCORE.RESTR.norm>
0

>  <SCORE.SYSTEM>
0

>  <SCORE.SYSTEM.CONST>
0

>  <SCORE.SYSTEM.DIHEDRAL>
0

>  <SCORE.SYSTEM.SOLV>
0

>  <SCORE.SYSTEM.norm>
0

>  <SCORE.heavy>
27

>  <SCORE.norm>
-0.417816

>  <RMSD>
6.059

$$$$
ligand
 OpenBabel11021811473D
libRbt.so/2013.1/901 2013/11/27
 27 29  0  0  0  0  0  0  0  0999 V2000
   46.5412   54.0063   36.2175 N   0  0  0  0  0  0  0  0  0  0  0  0
   46.8240   54.3818   34.8341 C   0  0  2  0  0  0  0  0  0  0  0  0
   48.2412   54.9139   34.6111 C   0  0  0  0  0  0  0  0  0  0  0  0
   48.7971   55.4490   35.5118 O   0  0  0  0  0  0  0  0  0  0  0  0
   45.7409   55.2587   34.1715 C   0  0  0  0  0  0  0  0  0  0  0  0
   45.8057   55.5271   32.6422 C   0  0  0  0  0  0  0  0  0  0  0  0
   44.7465   56.5158   32.0862 C   0  0  2  0  0  0  0  0  0  0  0  0
   44.7326   56.5728   30.6246 N   0  0  0  0  0  0  0  0  0  0  0  0
   44.8466   57.9224   32.7531 C   0  0  0  0  0  0  0  0  0  0  0  0
   46.1822   58.7267   32.6058 C   0  0  1  0  0  0  0  0  0  0  0  0
   47.4526   58.0164   32.6997 O   0  0  0  0  0  0  0  0  0  0  0  0
   46.3280   59.6192   31.3417 C   0  0  1  0  0  0  0  0  0  0  0  0
   45.4576   60.7516   31.2179 O   0  0  0  0  0  0  0  0  0  0  0  0
   47.8645   59.8148   31.1547 C   0  0  1  0  0  0  0  0  0  0  0  0
   48.4039   61.0907   31.4039 O   0  0  0  0  0  0  0  0  0  0  0  0
   48.4510   58.6069   31.8920 C   0  0  2  0  0  0  0  0  0  0  0  0
   49.0105   54.3574   33.5698 O   0  0  0  0  0  0  0  0  0  0  0  0
   48.9296   56.9398   26.7463 N   0  0  0  0  0  0  0  0  0  0  0  0
   48.1951   58.0318   27.2226 C   0  0  0  0  0  0  0  0  0  0  0  0
   48.1790   58.3351   28.6519 N   0  0  0  0  0  0  0  0  0  0  0  0
   48.8834   57.5533   29.5280 C   0  0  0  0  0  0  0  0  0  0  0  0
   49.6184   56.4550   29.0405 C   0  0  0  0  0  0  0  0  0  0  0  0
   49.6334   56.1529   27.6161 C   0  0  0  0  0  0  0  0  0  0  0  0
   50.3972   55.0129   27.1076 N   0  0  0  0  0  0  0  0  0  0  0  0
   50.2552   55.8118   30.1638 N   0  0  0  0  0  0  0  0  0  0  0  0
   49.8970   56.5277   31.3303 C   0  0  0  0  0  0  0  0  0  0  0  0
   49.0496   57.6106   30.9572 N   0  0  0  0  0  0  0  0  0  0  0  0
  2  1  1  1  0  0  0
  2  3  1  0  0  0  0
  2  5  1  0  0  0  0
  3  4  1  0  0  0  0
  3 17  1  0  0  0  0
  5  6  1  0  0  0  0
  7  6  1  6  0  0  0
  7  8  1  0  0  0  0
  7  9  1  0  0  0  0
 10  9  1  6  0  0  0
 10 11  1  0  0  0  0
 10 12  1  0  0  0  0
 11 16  1  0  0  0  0
 12 13  1  1  0  0  0
 12 14  1  0  0  0  0
 14 15  1  1  0  0  0
 14 16  1  0  0  0  0
 16 27  1  6  0  0  0
 18 19  2  0  0  0  0
 18 23  1  0  0  0  0
 19 20  1  0  0  0  0
 20 21  2  0  0  0  0
 21 22  1  0  0  0  0
 21 27  1  0  0  0  0
 22 23  2  0  0  0  0
 22 25  1  0  0  0  0
 23 24  1  0  0  0  0
 25 26  2  0  0  0  0
 26 27  1  0  0  0  0
M  END
>  <CHROM.1>
-27.96708204,-169.90347703,-174.99502396,-171.48007993,60.42708266,-39.97253231
109.68490536,47.69671376,57.05320054,31.47902568,-2.06655748,0.86254952,-0.83787849

>  <Name>
ligand

>  <RI>
0

>  <Rbt.Current_Directory>
/home/itssahil/PROJECTS/Mol_Feturizer/New_Systems/rnas/3GX2

>  <Rbt.Executable>
rbdock ($Id: //depot/dev/client3/rdock/2013.1/src/exe/rbdock.cxx#4 $)

>  <Rbt.Library>
libRbt.so (2013.1, Build901 2013/11/27)

>  <Rbt.Parameter_File>
/export/apps/rDock/src/rDock_2013.1_src/data/scripts/dock_solv.prm

>  <Rbt.Receptor>
prm/pocket_docking_7.prm

>  <SCORE>
-14.7913

>  <SCORE.INTER>
-11.1934

>  <SCORE.INTER.CONST>
1

>  <SCORE.INTER.POLAR>
0

>  <SCORE.INTER.ROT>
7

>  <SCORE.INTER.SOLV>
12.082

>  <SCORE.INTER.VDW>
-19.7563

>  <SCORE.INTER.norm>
-0.414572

>  <SCORE.INTRA>
-3.5979

>  <SCORE.INTRA.DIHEDRAL>
-7.48474

>  <SCORE.INTRA.DIHEDRAL.0>
13.9704

>  <SCORE.INTRA.POLAR>
0

>  <SCORE.INTRA.POLAR.0>
0

>  <SCORE.INTRA.REPUL>
0

>  <SCORE.INTRA.REPUL.0>
0

>  <SCORE.INTRA.SOLV>
1.35309

>  <SCORE.INTRA.SOLV.lig_0>
-70.9758

>  <SCORE.INTRA.VDW>
-0.532082

>  <SCORE.INTRA.VDW.0>
-2.70686

>  <SCORE.INTRA.norm>
-0.133256

>  <SCORE.RESTR>
0

>  <SCORE.RESTR.CAVITY>
0

>  <SCORE.RESTR.norm>
0

>  <SCORE.SYSTEM>
0

>  <SCORE.SYSTEM.CONST>
0

>  <SCORE.SYSTEM.DIHEDRAL>
0

>  <SCORE.SYSTEM.SOLV>
0

>  <SCORE.SYSTEM.norm>
0

>  <SCORE.heavy>
27

>  <SCORE.norm>
-0.547827

>  <RMSD>
6.062

$$$$
ligand
 OpenBabel11021811473D
libRbt.so/2013.1/901 2013/11/27
 27 29  0  0  0  0  0  0  0  0999 V2000
   50.2971   55.9264   28.6822 N   0  0  0  0  0  0  0  0  0  0  0  0
   49.0848   56.5354   29.2247 C   0  0  2  0  0  0  0  0  0  0  0  0
   48.4274   57.5525   28.2895 C   0  0  0  0  0  0  0  0  0  0  0  0
   48.9675   58.5929   28.1091 O   0  0  0  0  0  0  0  0  0  0  0  0
   49.2160   57.0481   30.6743 C   0  0  0  0  0  0  0  0  0  0  0  0
   49.6756   56.0704   31.7914 C   0  0  0  0  0  0  0  0  0  0  0  0
   49.5677   56.6077   33.2433 C   0  0  2  0  0  0  0  0  0  0  0  0
   50.0865   55.6689   34.2380 N   0  0  0  0  0  0  0  0  0  0  0  0
   48.1329   57.1216   33.5759 C   0  0  0  0  0  0  0  0  0  0  0  0
   46.9317   56.1262   33.4395 C   0  0  1  0  0  0  0  0  0  0  0  0
   46.9830   54.8507   34.1450 O   0  0  0  0  0  0  0  0  0  0  0  0
   45.5164   56.6874   33.7527 C   0  0  1  0  0  0  0  0  0  0  0  0
   44.9830   57.6862   32.8735 O   0  0  0  0  0  0  0  0  0  0  0  0
   44.6497   55.4380   34.1020 C   0  0  1  0  0  0  0  0  0  0  0  0
   43.6545   55.0467   33.1869 O   0  0  0  0  0  0  0  0  0  0  0  0
   45.6987   54.4104   34.5382 C   0  0  2  0  0  0  0  0  0  0  0  0
   47.5123   57.0838   27.3258 O   0  0  0  0  0  0  0  0  0  0  0  0
   48.5178   53.8239   39.1421 N   0  0  0  0  0  0  0  0  0  0  0  0
   49.0199   54.1055   37.8664 C   0  0  0  0  0  0  0  0  0  0  0  0
   48.1073   54.2292   36.7320 N   0  0  0  0  0  0  0  0  0  0  0  0
   46.7593   54.0717   36.9144 C   0  0  0  0  0  0  0  0  0  0  0  0
   46.2625   53.7865   38.2012 C   0  0  0  0  0  0  0  0  0  0  0  0
   47.1726   53.6627   39.3312 C   0  0  0  0  0  0  0  0  0  0  0  0
   46.6583   53.3674   40.6690 N   0  0  0  0  0  0  0  0  0  0  0  0
   44.8276   53.6704   38.1086 N   0  0  0  0  0  0  0  0  0  0  0  0
   44.4641   53.8846   36.7582 C   0  0  0  0  0  0  0  0  0  0  0  0
   45.6460   54.1366   36.0035 N   0  0  0  0  0  0  0  0  0  0  0  0
  2  1  1  6  0  0  0
  2  3  1  0  0  0  0
  2  5  1  0  0  0  0
  3  4  1  0  0  0  0
  3 17  1  0  0  0  0
  5  6  1  0  0  0  0
  7  6  1  6  0  0  0
  7  8  1  0  0  0  0
  7  9  1  0  0  0  0
 10  9  1  1  0  0  0
 10 11  1  0  0  0  0
 10 12  1  0  0  0  0
 11 16  1  0  0  0  0
 12 13  1  6  0  0  0
 12 14  1  0  0  0  0
 14 15  1  6  0  0  0
 14 16  1  0  0  0  0
 16 27  1  1  0  0  0
 18 19  2  0  0  0  0
 18 23  1  0  0  0  0
 19 20  1  0  0  0  0
 20 21  2  0  0  0  0
 21 22  1  0  0  0  0
 21 27  1  0  0  0  0
 22 23  2  0  0  0  0
 22 25  1  0  0  0  0
 23 24  1  0  0  0  0
 25 26  2  0  0  0  0
 26 27  1  0  0  0  0
M  END
>  <CHROM.1>
-70.76975654,-55.75628525,-170.86007207,-176.71903056,58.21509653,54.12459089
-10.72055628,47.28453900,55.51179542,33.96053924,-1.35576406,0.01489775,1.91960076

>  <Name>
ligand

>  <RI>
0

>  <Rbt.Current_Directory>
/home/itssahil/PROJECTS/Mol_Feturizer/New_Systems/rnas/3GX2

>  <Rbt.Executable>
rbdock ($Id: //depot/dev/client3/rdock/2013.1/src/exe/rbdock.cxx#4 $)

>  <Rbt.Library>
libRbt.so (2013.1, Build901 2013/11/27)

>  <Rbt.Parameter_File>
/export/apps/rDock/src/rDock_2013.1_src/data/scripts/dock_solv.prm

>  <Rbt.Receptor>
prm/pocket_docking_7.prm

>  <SCORE>
-14.8106

>  <SCORE.INTER>
-11.5047

>  <SCORE.INTER.CONST>
1

>  <SCORE.INTER.POLAR>
0

>  <SCORE.INTER.ROT>
7

>  <SCORE.INTER.SOLV>
15.2127

>  <SCORE.INTER.VDW>
-21.0073

>  <SCORE.INTER.norm>
-0.426098

>  <SCORE.INTRA>
-3.30596

>  <SCORE.INTRA.DIHEDRAL>
-8.79388

>  <SCORE.INTRA.DIHEDRAL.0>
13.9704

>  <SCORE.INTRA.POLAR>
0

>  <SCORE.INTRA.POLAR.0>
0

>  <SCORE.INTRA.REPUL>
0

>  <SCORE.INTRA.REPUL.0>
0

>  <SCORE.INTRA.SOLV>
1.01568

>  <SCORE.INTRA.SOLV.lig_0>
-70.9758

>  <SCORE.INTRA.VDW>
0.583135

>  <SCORE.INTRA.VDW.0>
-2.70686

>  <SCORE.INTRA.norm>
-0.122443

>  <SCORE.RESTR>
0

>  <SCORE.RESTR.CAVITY>
0

>  <SCORE.RESTR.norm>
0

>  <SCORE.SYSTEM>
0

>  <SCORE.SYSTEM.CONST>
0

>  <SCORE.SYSTEM.DIHEDRAL>
0

>  <SCORE.SYSTEM.SOLV>
0

>  <SCORE.SYSTEM.norm>
0

>  <SCORE.heavy>
27

>  <SCORE.norm>
-0.548541

>  <RMSD>
6.063

$$$$
ligand
 OpenBabel11021811473D
libRbt.so/2013.1/901 2013/11/27
 27 29  0  0  0  0  0  0  0  0999 V2000
   47.6514   52.5988   25.7459 N   0  0  0  0  0  0  0  0  0  0  0  0
   47.1101   52.3481   27.0798 C   0  0  2  0  0  0  0  0  0  0  0  0
   45.5904   52.4996   27.1731 C   0  0  0  0  0  0  0  0  0  0  0  0
   44.9404   52.3370   26.1944 O   0  0  0  0  0  0  0  0  0  0  0  0
   47.8577   53.0665   28.2227 C   0  0  0  0  0  0  0  0  0  0  0  0
   47.5702   52.6628   29.6956 C   0  0  0  0  0  0  0  0  0  0  0  0
   48.4249   53.3848   30.7711 C   0  0  2  0  0  0  0  0  0  0  0  0
   49.8458   53.0464   30.6907 N   0  0  0  0  0  0  0  0  0  0  0  0
   47.8347   53.2137   32.2048 C   0  0  0  0  0  0  0  0  0  0  0  0
   46.5850   54.0678   32.6060 C   0  0  1  0  0  0  0  0  0  0  0  0
   45.6445   53.5337   33.5845 O   0  0  0  0  0  0  0  0  0  0  0  0
   46.8528   55.5242   33.0785 C   0  0  1  0  0  0  0  0  0  0  0  0
   47.3677   56.4554   32.1178 O   0  0  0  0  0  0  0  0  0  0  0  0
   45.6020   55.9157   33.9249 C   0  0  1  0  0  0  0  0  0  0  0  0
   44.7159   56.8709   33.3926 O   0  0  0  0  0  0  0  0  0  0  0  0
   45.0489   54.5548   34.3595 C   0  0  2  0  0  0  0  0  0  0  0  0
   44.9768   52.3436   28.4321 O   0  0  0  0  0  0  0  0  0  0  0  0
   48.5955   53.9171   38.4217 N   0  0  0  0  0  0  0  0  0  0  0  0
   48.8804   54.1552   37.0723 C   0  0  0  0  0  0  0  0  0  0  0  0
   47.7912   54.3013   36.1094 N   0  0  0  0  0  0  0  0  0  0  0  0
   46.4898   54.2075   36.5249 C   0  0  0  0  0  0  0  0  0  0  0  0
   46.2118   53.9658   37.8844 C   0  0  0  0  0  0  0  0  0  0  0  0
   47.2979   53.8196   38.8434 C   0  0  0  0  0  0  0  0  0  0  0  0
   47.0111   53.5695   40.2564 N   0  0  0  0  0  0  0  0  0  0  0  0
   44.7790   53.9127   38.0431 N   0  0  0  0  0  0  0  0  0  0  0  0
   44.1964   54.1211   36.7708 C   0  0  0  0  0  0  0  0  0  0  0  0
   45.2393   54.3075   35.8180 N   0  0  0  0  0  0  0  0  0  0  0  0
  2  1  1  6  0  0  0
  2  3  1  0  0  0  0
  2  5  1  0  0  0  0
  3  4  1  0  0  0  0
  3 17  1  0  0  0  0
  5  6  1  0  0  0  0
  7  6  1  6  0  0  0
  7  8  1  0  0  0  0
  7  9  1  0  0  0  0
 10  9  1  1  0  0  0
 10 11  1  0  0  0  0
 10 12  1  0  0  0  0
 11 16  1  0  0  0  0
 12 13  1  6  0  0  0
 12 14  1  0  0  0  0
 14 15  1  6  0  0  0
 14 16  1  0  0  0  0
 16 27  1  1  0  0  0
 18 19  2  0  0  0  0
 18 23  1  0  0  0  0
 19 20  1  0  0  0  0
 20 21  2  0  0  0  0
 21 22  1  0  0  0  0
 21 27  1  0  0  0  0
 22 23  2  0  0  0  0
 22 25  1  0  0  0  0
 23 24  1  0  0  0  0
 25 26  2  0  0  0  0
 26 27  1  0  0  0  0
M  END
>  <CHROM.1>
25.69316407,-167.70061971,176.77969146,-65.76153911,-76.60330875,150.55398491
60.58285561,46.64577553,53.88143772,33.00374208,-1.55793466,-0.27242663,1.43030080

>  <Name>
ligand

>  <RI>
0

>  <Rbt.Current_Directory>
/home/itssahil/PROJECTS/Mol_Feturizer/New_Systems/rnas/3GX2

>  <Rbt.Executable>
rbdock ($Id: //depot/dev/client3/rdock/2013.1/src/exe/rbdock.cxx#4 $)

>  <Rbt.Library>
libRbt.so (2013.1, Build901 2013/11/27)

>  <Rbt.Parameter_File>
/export/apps/rDock/src/rDock_2013.1_src/data/scripts/dock_solv.prm

>  <Rbt.Receptor>
prm/pocket_docking_6.prm

>  <SCORE>
-12.759

>  <SCORE.INTER>
-10.464

>  <SCORE.INTER.CONST>
1

>  <SCORE.INTER.POLAR>
0

>  <SCORE.INTER.ROT>
7

>  <SCORE.INTER.SOLV>
14.0467

>  <SCORE.INTER.VDW>
-19.9249

>  <SCORE.INTER.norm>
-0.387555

>  <SCORE.INTRA>
-2.29497

>  <SCORE.INTRA.DIHEDRAL>
-4.8593

>  <SCORE.INTRA.DIHEDRAL.0>
13.9704

>  <SCORE.INTRA.POLAR>
0

>  <SCORE.INTRA.POLAR.0>
0

>  <SCORE.INTRA.REPUL>
0

>  <SCORE.INTRA.REPUL.0>
0

>  <SCORE.INTRA.SOLV>
-0.220924

>  <SCORE.INTRA.SOLV.lig_0>
-70.9758

>  <SCORE.INTRA.VDW>
0.24514

>  <SCORE.INTRA.VDW.0>
-2.70686

>  <SCORE.INTRA.norm>
-0.0849989

>  <SCORE.RESTR>
0

>  <SCORE.RESTR.CAVITY>
0

>  <SCORE.RESTR.norm>
0

>  <SCORE.SYSTEM>
0

>  <SCORE.SYSTEM.CONST>
0

>  <SCORE.SYSTEM.DIHEDRAL>
0

>  <SCORE.SYSTEM.SOLV>
0

>  <SCORE.SYSTEM.norm>
0

>  <SCORE.heavy>
27

>  <SCORE.norm>
-0.472554

>  <RMSD>
6.067

$$$$
ligand
 OpenBabel11021811483D
libRbt.so/2013.1/901 2013/11/27
 27 29  0  0  0  0  0  0  0  0999 V2000
   41.8778   55.3631   31.9239 N   0  0  0  0  0  0  0  0  0  0  0  0
   41.4926   55.5971   30.5340 C   0  0  2  0  0  0  0  0  0  0  0  0
   40.3840   54.6702   30.0312 C   0  0  0  0  0  0  0  0  0  0  0  0
   39.4250   55.1511   29.5252 O   0  0  0  0  0  0  0  0  0  0  0  0
   42.6753   55.7100   29.5493 C   0  0  0  0  0  0  0  0  0  0  0  0
   43.6823   56.8844   29.6966 C   0  0  0  0  0  0  0  0  0  0  0  0
   44.8023   56.9501   28.6243 C   0  0  2  0  0  0  0  0  0  0  0  0
   45.8414   55.9399   28.8237 N   0  0  0  0  0  0  0  0  0  0  0  0
   45.3737   58.3919   28.4571 C   0  0  0  0  0  0  0  0  0  0  0  0
   46.1710   59.0231   29.6480 C   0  0  1  0  0  0  0  0  0  0  0  0
   45.5973   58.9806   30.9882 O   0  0  0  0  0  0  0  0  0  0  0  0
   47.6394   58.5502   29.8382 C   0  0  1  0  0  0  0  0  0  0  0  0
   48.5904   58.8951   28.8225 O   0  0  0  0  0  0  0  0  0  0  0  0
   47.9757   58.8524   31.3314 C   0  0  1  0  0  0  0  0  0  0  0  0
   48.8880   59.8880   31.6074 O   0  0  0  0  0  0  0  0  0  0  0  0
   46.5922   58.8908   31.9881 C   0  0  2  0  0  0  0  0  0  0  0  0
   40.7113   53.3318   29.7357 O   0  0  0  0  0  0  0  0  0  0  0  0
   48.8298   55.0809   35.1449 N   0  0  0  0  0  0  0  0  0  0  0  0
   49.4883   56.0829   34.4228 C   0  0  0  0  0  0  0  0  0  0  0  0
   48.7198   57.0303   33.6186 N   0  0  0  0  0  0  0  0  0  0  0  0
   47.3541   56.9415   33.5709 C   0  0  0  0  0  0  0  0  0  0  0  0
   46.6994   55.9290   34.2991 C   0  0  0  0  0  0  0  0  0  0  0  0
   47.4660   54.9846   35.0997 C   0  0  0  0  0  0  0  0  0  0  0  0
   46.7875   53.9327   35.8577 N   0  0  0  0  0  0  0  0  0  0  0  0
   45.2812   56.0634   34.0716 N   0  0  0  0  0  0  0  0  0  0  0  0
   45.0865   57.1608   33.2003 C   0  0  0  0  0  0  0  0  0  0  0  0
   46.3579   57.7189   32.8805 N   0  0  0  0  0  0  0  0  0  0  0  0
  2  1  1  1  0  0  0
  2  3  1  0  0  0  0
  2  5  1  0  0  0  0
  3  4  1  0  0  0  0
  3 17  1  0  0  0  0
  5  6  1  0  0  0  0
  7  6  1  1  0  0  0
  7  8  1  0  0  0  0
  7  9  1  0  0  0  0
 10  9  1  6  0  0  0
 10 11  1  0  0  0  0
 10 12  1  0  0  0  0
 11 16  1  0  0  0  0
 12 13  1  6  0  0  0
 12 14  1  0  0  0  0
 14 15  1  6  0  0  0
 14 16  1  0  0  0  0
 16 27  1  6  0  0  0
 18 19  2  0  0  0  0
 18 23  1  0  0  0  0
 19 20  1  0  0  0  0
 20 21  2  0  0  0  0
 21 22  1  0  0  0  0
 21 27  1  0  0  0  0
 22 23  2  0  0  0  0
 22 25  1  0  0  0  0
 23 24  1  0  0  0  0
 25 26  2  0  0  0  0
 26 27  1  0  0  0  0
M  END
>  <CHROM.1>
127.56693453,-64.18021572,-177.44371570,-74.80233590,66.74308337,-49.15265855
149.66864864,45.48835480,56.75400133,31.52054234,2.92837537,-0.47897833,-0.98442865

>  <Name>
ligand

>  <RI>
0

>  <Rbt.Current_Directory>
/home/itssahil/PROJECTS/Mol_Feturizer/New_Systems/rnas/3GX2

>  <Rbt.Executable>
rbdock ($Id: //depot/dev/client3/rdock/2013.1/src/exe/rbdock.cxx#4 $)

>  <Rbt.Library>
libRbt.so (2013.1, Build901 2013/11/27)

>  <Rbt.Parameter_File>
/export/apps/rDock/src/rDock_2013.1_src/data/scripts/dock_solv.prm

>  <Rbt.Receptor>
prm/pocket_docking_8.prm

>  <SCORE>
-15.0989

>  <SCORE.INTER>
-12.0189

>  <SCORE.INTER.CONST>
1

>  <SCORE.INTER.POLAR>
0

>  <SCORE.INTER.ROT>
7

>  <SCORE.INTER.SOLV>
14.6693

>  <SCORE.INTER.VDW>
-21.169

>  <SCORE.INTER.norm>
-0.445145

>  <SCORE.INTRA>
-3.07994

>  <SCORE.INTRA.DIHEDRAL>
-7.49666

>  <SCORE.INTRA.DIHEDRAL.0>
13.9704

>  <SCORE.INTRA.POLAR>
0

>  <SCORE.INTRA.POLAR.0>
0

>  <SCORE.INTRA.REPUL>
0

>  <SCORE.INTRA.REPUL.0>
0

>  <SCORE.INTRA.SOLV>
2.17272

>  <SCORE.INTRA.SOLV.lig_0>
-70.9758

>  <SCORE.INTRA.VDW>
-0.417971

>  <SCORE.INTRA.VDW.0>
-2.70686

>  <SCORE.INTRA.norm>
-0.114072

>  <SCORE.RESTR>
0

>  <SCORE.RESTR.CAVITY>
0

>  <SCORE.RESTR.norm>
0

>  <SCORE.SYSTEM>
0

>  <SCORE.SYSTEM.CONST>
0

>  <SCORE.SYSTEM.DIHEDRAL>
0

>  <SCORE.SYSTEM.SOLV>
0

>  <SCORE.SYSTEM.norm>
0

>  <SCORE.heavy>
27

>  <SCORE.norm>
-0.559217

>  <RMSD>
6.097

$$$$
ligand
 OpenBabel11021811473D
libRbt.so/2013.1/901 2013/11/27
 27 29  0  0  0  0  0  0  0  0999 V2000
   45.9743   53.9868   32.9396 N   0  0  0  0  0  0  0  0  0  0  0  0
   47.4169   54.2028   32.8547 C   0  0  2  0  0  0  0  0  0  0  0  0
   48.2329   53.3413   33.8208 C   0  0  0  0  0  0  0  0  0  0  0  0
   47.6629   52.7455   34.6734 O   0  0  0  0  0  0  0  0  0  0  0  0
   47.8466   55.6849   32.8605 C   0  0  0  0  0  0  0  0  0  0  0  0
   49.3312   56.0507   32.5824 C   0  0  0  0  0  0  0  0  0  0  0  0
   49.8869   57.2621   33.3775 C   0  0  2  0  0  0  0  0  0  0  0  0
   49.1296   57.5376   34.5984 N   0  0  0  0  0  0  0  0  0  0  0  0
   50.0755   58.5214   32.4764 C   0  0  0  0  0  0  0  0  0  0  0  0
   48.8100   59.1632   31.8138 C   0  0  1  0  0  0  0  0  0  0  0  0
   48.8342   59.4715   30.3884 O   0  0  0  0  0  0  0  0  0  0  0  0
   47.4566   58.4303   32.0304 C   0  0  1  0  0  0  0  0  0  0  0  0
   46.9235   58.3886   33.3605 O   0  0  0  0  0  0  0  0  0  0  0  0
   46.5431   58.9041   30.8577 C   0  0  1  0  0  0  0  0  0  0  0  0
   45.4643   59.7552   31.1621 O   0  0  0  0  0  0  0  0  0  0  0  0
   47.5567   59.3450   29.7970 C   0  0  2  0  0  0  0  0  0  0  0  0
   49.5040   52.8930   33.4097 O   0  0  0  0  0  0  0  0  0  0  0  0
   49.1442   54.5146   27.8907 N   0  0  0  0  0  0  0  0  0  0  0  0
   49.3394   55.0278   29.1781 C   0  0  0  0  0  0  0  0  0  0  0  0
   48.8409   56.3584   29.5186 N   0  0  0  0  0  0  0  0  0  0  0  0
   48.1803   57.1054   28.5801 C   0  0  0  0  0  0  0  0  0  0  0  0
   47.9898   56.5822   27.2863 C   0  0  0  0  0  0  0  0  0  0  0  0
   48.4875   55.2563   26.9474 C   0  0  0  0  0  0  0  0  0  0  0  0
   48.2897   54.7107   25.6041 N   0  0  0  0  0  0  0  0  0  0  0  0
   47.2757   57.5657   26.5092 N   0  0  0  0  0  0  0  0  0  0  0  0
   47.0401   58.6848   27.3421 C   0  0  0  0  0  0  0  0  0  0  0  0
   47.5909   58.4183   28.6288 N   0  0  0  0  0  0  0  0  0  0  0  0
  2  1  1  1  0  0  0
  2  3  1  0  0  0  0
  2  5  1  0  0  0  0
  3  4  1  0  0  0  0
  3 17  1  0  0  0  0
  5  6  1  0  0  0  0
  7  6  1  6  0  0  0
  7  8  1  0  0  0  0
  7  9  1  0  0  0  0
 10  9  1  6  0  0  0
 10 11  1  0  0  0  0
 10 12  1  0  0  0  0
 11 16  1  0  0  0  0
 12 13  1  1  0  0  0
 12 14  1  0  0  0  0
 14 15  1  1  0  0  0
 14 16  1  0  0  0  0
 16 27  1  6  0  0  0
 18 19  2  0  0  0  0
 18 23  1  0  0  0  0
 19 20  1  0  0  0  0
 20 21  2  0  0  0  0
 21 22  1  0  0  0  0
 21 27  1  0  0  0  0
 22 23  2  0  0  0  0
 22 25  1  0  0  0  0
 23 24  1  0  0  0  0
 25 26  2  0  0  0  0
 26 27  1  0  0  0  0
M  END
>  <CHROM.1>
-11.28435965,-171.77903988,-144.41087575,22.16507427,63.22598220,-131.11683267
48.52751756,48.09287843,56.65582988,30.86166513,-1.11691514,1.42402494,-1.63519360

>  <Name>
ligand

>  <RI>
0

>  <Rbt.Current_Directory>
/home/itssahil/PROJECTS/Mol_Feturizer/New_Systems/rnas/3GX2

>  <Rbt.Executable>
rbdock ($Id: //depot/dev/client3/rdock/2013.1/src/exe/rbdock.cxx#4 $)

>  <Rbt.Library>
libRbt.so (2013.1, Build901 2013/11/27)

>  <Rbt.Parameter_File>
/export/apps/rDock/src/rDock_2013.1_src/data/scripts/dock_solv.prm

>  <Rbt.Receptor>
prm/pocket_docking_2.prm

>  <SCORE>
2.65557

>  <SCORE.INTER>
-3.46707

>  <SCORE.INTER.CONST>
1

>  <SCORE.INTER.POLAR>
0

>  <SCORE.INTER.ROT>
7

>  <SCORE.INTER.SOLV>
16.6018

>  <SCORE.INTER.VDW>
-16.112

>  <SCORE.INTER.norm>
-0.12841

>  <SCORE.INTRA>
4.66266

>  <SCORE.INTRA.DIHEDRAL>
3.84652

>  <SCORE.INTRA.DIHEDRAL.0>
13.9704

>  <SCORE.INTRA.POLAR>
0

>  <SCORE.INTRA.POLAR.0>
0

>  <SCORE.INTRA.REPUL>
0

>  <SCORE.INTRA.REPUL.0>
0

>  <SCORE.INTRA.SOLV>
3.58306

>  <SCORE.INTRA.SOLV.lig_0>
-70.9758

>  <SCORE.INTRA.VDW>
0.947872

>  <SCORE.INTRA.VDW.0>
-2.70686

>  <SCORE.INTRA.norm>
0.172691

>  <SCORE.RESTR>
1.45997

>  <SCORE.RESTR.CAVITY>
1.45997

>  <SCORE.RESTR.norm>
0.0540731

>  <SCORE.SYSTEM>
0

>  <SCORE.SYSTEM.CONST>
0

>  <SCORE.SYSTEM.DIHEDRAL>
0

>  <SCORE.SYSTEM.SOLV>
0

>  <SCORE.SYSTEM.norm>
0

>  <SCORE.heavy>
27

>  <SCORE.norm>
0.0983545

>  <RMSD>
6.099

$$$$
ligand
 OpenBabel11021811473D
libRbt.so/2013.1/901 2013/11/27
 27 29  0  0  0  0  0  0  0  0999 V2000
   45.9990   53.4891   34.5600 N   0  0  0  0  0  0  0  0  0  0  0  0
   47.1357   52.9247   35.2843 C   0  0  2  0  0  0  0  0  0  0  0  0
   47.2405   53.3905   36.7380 C   0  0  0  0  0  0  0  0  0  0  0  0
   46.3514   54.0268   37.1979 O   0  0  0  0  0  0  0  0  0  0  0  0
   48.4799   52.9995   34.5302 C   0  0  0  0  0  0  0  0  0  0  0  0
   49.1909   54.3722   34.3709 C   0  0  0  0  0  0  0  0  0  0  0  0
   48.4762   55.3985   33.4520 C   0  0  2  0  0  0  0  0  0  0  0  0
   48.8228   55.2366   32.0400 N   0  0  0  0  0  0  0  0  0  0  0  0
   48.6469   56.8632   33.9605 C   0  0  0  0  0  0  0  0  0  0  0  0
   47.8342   57.9999   33.2534 C   0  0  1  0  0  0  0  0  0  0  0  0
   48.4108   58.6675   32.0919 O   0  0  0  0  0  0  0  0  0  0  0  0
   46.3796   57.6597   32.8243 C   0  0  1  0  0  0  0  0  0  0  0  0
   45.4181   57.4098   33.8578 O   0  0  0  0  0  0  0  0  0  0  0  0
   46.0372   58.6808   31.6955 C   0  0  1  0  0  0  0  0  0  0  0  0
   45.0974   59.6894   31.9788 O   0  0  0  0  0  0  0  0  0  0  0  0
   47.4200   59.0836   31.1737 C   0  0  2  0  0  0  0  0  0  0  0  0
   48.0943   52.6843   37.6087 O   0  0  0  0  0  0  0  0  0  0  0  0
   45.5761   56.0685   27.0511 N   0  0  0  0  0  0  0  0  0  0  0  0
   44.9324   56.3361   28.2646 C   0  0  0  0  0  0  0  0  0  0  0  0
   45.5831   57.1750   29.2685 N   0  0  0  0  0  0  0  0  0  0  0  0
   46.8229   57.7025   29.0239 C   0  0  0  0  0  0  0  0  0  0  0  0
   47.4646   57.4266   27.8007 C   0  0  0  0  0  0  0  0  0  0  0  0
   46.8158   56.5899   26.8010 C   0  0  0  0  0  0  0  0  0  0  0  0
   47.4804   56.3029   25.5293 N   0  0  0  0  0  0  0  0  0  0  0  0
   48.7419   58.0971   27.8071 N   0  0  0  0  0  0  0  0  0  0  0  0
   48.8662   58.7757   29.0422 C   0  0  0  0  0  0  0  0  0  0  0  0
   47.6875   58.5452   29.8086 N   0  0  0  0  0  0  0  0  0  0  0  0
  2  1  1  6  0  0  0
  2  3  1  0  0  0  0
  2  5  1  0  0  0  0
  3  4  1  0  0  0  0
  3 17  1  0  0  0  0
  5  6  1  0  0  0  0
  7  6  1  1  0  0  0
  7  8  1  0  0  0  0
  7  9  1  0  0  0  0
 10  9  1  6  0  0  0
 10 11  1  0  0  0  0
 10 12  1  0  0  0  0
 11 16  1  0  0  0  0
 12 13  1  1  0  0  0
 12 14  1  0  0  0  0
 14 15  1  1  0  0  0
 14 16  1  0  0  0  0
 16 27  1  6  0  0  0
 18 19  2  0  0  0  0
 18 23  1  0  0  0  0
 19 20  1  0  0  0  0
 20 21  2  0  0  0  0
 21 22  1  0  0  0  0
 21 27  1  0  0  0  0
 22 23  2  0  0  0  0
 22 25  1  0  0  0  0
 23 24  1  0  0  0  0
 25 26  2  0  0  0  0
 26 27  1  0  0  0  0
M  END
>  <CHROM.1>
8.02775092,72.28890269,-68.06505739,-85.89461378,-172.19371226,-88.58271899
121.09186975,47.21458057,56.40543804,31.87999530,-1.15929492,1.41838028,-1.53151370

>  <Name>
ligand

>  <RI>
0

>  <Rbt.Current_Directory>
/home/itssahil/PROJECTS/Mol_Feturizer/New_Systems/rnas/3GX2

>  <Rbt.Executable>
rbdock ($Id: //depot/dev/client3/rdock/2013.1/src/exe/rbdock.cxx#4 $)

>  <Rbt.Library>
libRbt.so (2013.1, Build901 2013/11/27)

>  <Rbt.Parameter_File>
/export/apps/rDock/src/rDock_2013.1_src/data/scripts/dock_solv.prm

>  <Rbt.Receptor>
prm/pocket_docking_5.prm

>  <SCORE>
-10.155

>  <SCORE.INTER>
-10.3276

>  <SCORE.INTER.CONST>
1

>  <SCORE.INTER.POLAR>
0

>  <SCORE.INTER.ROT>
7

>  <SCORE.INTER.SOLV>
17.3897

>  <SCORE.INTER.VDW>
-20.9483

>  <SCORE.INTER.norm>
-0.382503

>  <SCORE.INTRA>
0.172619

>  <SCORE.INTRA.DIHEDRAL>
-3.42682

>  <SCORE.INTRA.DIHEDRAL.0>
13.9704

>  <SCORE.INTRA.POLAR>
0

>  <SCORE.INTRA.POLAR.0>
0

>  <SCORE.INTRA.REPUL>
0

>  <SCORE.INTRA.REPUL.0>
0

>  <SCORE.INTRA.SOLV>
4.00208

>  <SCORE.INTRA.SOLV.lig_0>
-70.9758

>  <SCORE.INTRA.VDW>
-0.115014

>  <SCORE.INTRA.VDW.0>
-2.70686

>  <SCORE.INTRA.norm>
0.00639328

>  <SCORE.RESTR>
0

>  <SCORE.RESTR.CAVITY>
0

>  <SCORE.RESTR.norm>
0

>  <SCORE.SYSTEM>
0

>  <SCORE.SYSTEM.CONST>
0

>  <SCORE.SYSTEM.DIHEDRAL>
0

>  <SCORE.SYSTEM.SOLV>
0

>  <SCORE.SYSTEM.norm>
0

>  <SCORE.heavy>
27

>  <SCORE.norm>
-0.376109

>  <RMSD>
6.103

$$$$
ligand
 OpenBabel11021811483D
libRbt.so/2013.1/901 2013/11/27
 27 29  0  0  0  0  0  0  0  0999 V2000
   47.2936   58.4756   28.8937 N   0  0  0  0  0  0  0  0  0  0  0  0
   48.5977   58.3741   29.5447 C   0  0  2  0  0  0  0  0  0  0  0  0
   49.2068   56.9711   29.5022 C   0  0  0  0  0  0  0  0  0  0  0  0
   49.8689   56.6655   28.5668 O   0  0  0  0  0  0  0  0  0  0  0  0
   48.6695   59.0190   30.9447 C   0  0  0  0  0  0  0  0  0  0  0  0
   47.6525   58.5871   32.0376 C   0  0  0  0  0  0  0  0  0  0  0  0
   46.1745   58.9820   31.7763 C   0  0  2  0  0  0  0  0  0  0  0  0
   45.9440   60.4231   31.8764 N   0  0  0  0  0  0  0  0  0  0  0  0
   45.1798   58.1415   32.6348 C   0  0  0  0  0  0  0  0  0  0  0  0
   45.2218   56.5807   32.5143 C   0  0  1  0  0  0  0  0  0  0  0  0
   46.1977   55.8341   33.3002 O   0  0  0  0  0  0  0  0  0  0  0  0
   43.8826   55.8235   32.7358 C   0  0  1  0  0  0  0  0  0  0  0  0
   42.8365   56.0191   31.7753 O   0  0  0  0  0  0  0  0  0  0  0  0
   44.2947   54.3709   33.1288 C   0  0  1  0  0  0  0  0  0  0  0  0
   44.0503   53.3405   32.2018 O   0  0  0  0  0  0  0  0  0  0  0  0
   45.7158   54.5577   33.6696 C   0  0  2  0  0  0  0  0  0  0  0  0
   49.3840   56.2797   30.7173 O   0  0  0  0  0  0  0  0  0  0  0  0
   48.9029   54.3534   38.0614 N   0  0  0  0  0  0  0  0  0  0  0  0
   49.2910   54.5926   36.7382 C   0  0  0  0  0  0  0  0  0  0  0  0
   48.2898   54.6114   35.6741 N   0  0  0  0  0  0  0  0  0  0  0  0
   46.9699   54.3967   35.9689 C   0  0  0  0  0  0  0  0  0  0  0  0
   46.5881   54.1548   37.3030 C   0  0  0  0  0  0  0  0  0  0  0  0
   47.5865   54.1355   38.3628 C   0  0  0  0  0  0  0  0  0  0  0  0
   47.1916   53.8853   39.7495 N   0  0  0  0  0  0  0  0  0  0  0  0
   45.1586   53.9627   37.3288 N   0  0  0  0  0  0  0  0  0  0  0  0
   44.6828   54.0877   36.0023 C   0  0  0  0  0  0  0  0  0  0  0  0
   45.7889   54.3585   35.1460 N   0  0  0  0  0  0  0  0  0  0  0  0
  2  1  1  1  0  0  0
  2  3  1  0  0  0  0
  2  5  1  0  0  0  0
  3  4  1  0  0  0  0
  3 17  1  0  0  0  0
  5  6  1  0  0  0  0
  7  6  1  1  0  0  0
  7  8  1  0  0  0  0
  7  9  1  0  0  0  0
 10  9  1  1  0  0  0
 10 11  1  0  0  0  0
 10 12  1  0  0  0  0
 11 16  1  0  0  0  0
 12 13  1  6  0  0  0
 12 14  1  0  0  0  0
 14 15  1  6  0  0  0
 14 16  1  0  0  0  0
 16 27  1  1  0  0  0
 18 19  2  0  0  0  0
 18 23  1  0  0  0  0
 19 20  1  0  0  0  0
 20 21  2  0  0  0  0
 21 22  1  0  0  0  0
 21 27  1  0  0  0  0
 22 23  2  0  0  0  0
 22 25  1  0  0  0  0
 23 24  1  0  0  0  0
 25 26  2  0  0  0  0
 26 27  1  0  0  0  0
M  END
>  <CHROM.1>
87.81129695,54.80781301,-67.20210584,-69.43456364,-56.70953558,83.51063412
-59.94059289,46.68473616,55.98875937,33.44370375,1.45004048,-0.17798718,-1.08774820

>  <Name>
ligand

>  <RI>
0

>  <Rbt.Current_Directory>
/home/itssahil/PROJECTS/Mol_Feturizer/New_Systems/rnas/3GX2

>  <Rbt.Executable>
rbdock ($Id: //depot/dev/client3/rdock/2013.1/src/exe/rbdock.cxx#4 $)

>  <Rbt.Library>
libRbt.so (2013.1, Build901 2013/11/27)

>  <Rbt.Parameter_File>
/export/apps/rDock/src/rDock_2013.1_src/data/scripts/dock_solv.prm

>  <Rbt.Receptor>
prm/pocket_docking_8.prm

>  <SCORE>
-12.9806

>  <SCORE.INTER>
-11.3837

>  <SCORE.INTER.CONST>
1

>  <SCORE.INTER.POLAR>
0

>  <SCORE.INTER.ROT>
7

>  <SCORE.INTER.SOLV>
15.836

>  <SCORE.INTER.VDW>
-21.1345

>  <SCORE.INTER.norm>
-0.421619

>  <SCORE.INTRA>
-1.59688

>  <SCORE.INTRA.DIHEDRAL>
-6.91162

>  <SCORE.INTRA.DIHEDRAL.0>
13.9704

>  <SCORE.INTRA.POLAR>
0

>  <SCORE.INTRA.POLAR.0>
0

>  <SCORE.INTRA.REPUL>
0

>  <SCORE.INTRA.REPUL.0>
0

>  <SCORE.INTRA.SOLV>
2.40673

>  <SCORE.INTRA.SOLV.lig_0>
-70.9758

>  <SCORE.INTRA.VDW>
0.655572

>  <SCORE.INTRA.VDW.0>
-2.70686

>  <SCORE.INTRA.norm>
-0.0591436

>  <SCORE.RESTR>
0

>  <SCORE.RESTR.CAVITY>
0

>  <SCORE.RESTR.norm>
0

>  <SCORE.SYSTEM>
0

>  <SCORE.SYSTEM.CONST>
0

>  <SCORE.SYSTEM.DIHEDRAL>
0

>  <SCORE.SYSTEM.SOLV>
0

>  <SCORE.SYSTEM.norm>
0

>  <SCORE.heavy>
27

>  <SCORE.norm>
-0.480762

>  <RMSD>
6.126

$$$$
ligand
 OpenBabel11021811483D
libRbt.so/2013.1/901 2013/11/27
 27 29  0  0  0  0  0  0  0  0999 V2000
   47.0151   59.9770   31.5725 N   0  0  0  0  0  0  0  0  0  0  0  0
   47.4985   59.0510   32.5943 C   0  0  2  0  0  0  0  0  0  0  0  0
   48.9699   58.6624   32.4357 C   0  0  0  0  0  0  0  0  0  0  0  0
   49.5053   58.8696   31.3978 O   0  0  0  0  0  0  0  0  0  0  0  0
   46.5798   57.8377   32.8489 C   0  0  0  0  0  0  0  0  0  0  0  0
   46.1736   56.9243   31.6589 C   0  0  0  0  0  0  0  0  0  0  0  0
   45.3862   55.6405   32.0333 C   0  0  2  0  0  0  0  0  0  0  0  0
   44.3103   55.8917   32.9921 N   0  0  0  0  0  0  0  0  0  0  0  0
   46.3298   54.4750   32.4629 C   0  0  0  0  0  0  0  0  0  0  0  0
   47.5051   54.7892   33.4490 C   0  0  1  0  0  0  0  0  0  0  0  0
   47.2068   55.4137   34.7329 O   0  0  0  0  0  0  0  0  0  0  0  0
   48.4593   53.6136   33.8005 C   0  0  1  0  0  0  0  0  0  0  0  0
   49.2814   53.0829   32.7529 O   0  0  0  0  0  0  0  0  0  0  0  0
   49.1174   54.0134   35.1574 C   0  0  1  0  0  0  0  0  0  0  0  0
   50.4831   54.3537   35.1552 O   0  0  0  0  0  0  0  0  0  0  0  0
   48.1085   55.0067   35.7424 C   0  0  2  0  0  0  0  0  0  0  0  0
   49.7592   58.5366   33.5962 O   0  0  0  0  0  0  0  0  0  0  0  0
   43.3323   53.4534   37.8069 N   0  0  0  0  0  0  0  0  0  0  0  0
   43.5804   53.9690   36.5297 C   0  0  0  0  0  0  0  0  0  0  0  0
   44.9398   54.3378   36.1410 N   0  0  0  0  0  0  0  0  0  0  0  0
   45.9740   54.1782   37.0244 C   0  0  0  0  0  0  0  0  0  0  0  0
   45.7152   53.6604   38.3085 C   0  0  0  0  0  0  0  0  0  0  0  0
   44.3601   53.2938   38.6953 C   0  0  0  0  0  0  0  0  0  0  0  0
   44.0894   52.7547   40.0286 N   0  0  0  0  0  0  0  0  0  0  0  0
   46.9662   53.6001   39.0244 N   0  0  0  0  0  0  0  0  0  0  0  0
   47.9787   54.0871   38.1647 C   0  0  0  0  0  0  0  0  0  0  0  0
   47.3846   54.4483   36.9210 N   0  0  0  0  0  0  0  0  0  0  0  0
  2  1  1  6  0  0  0
  2  3  1  0  0  0  0
  2  5  1  0  0  0  0
  3  4  1  0  0  0  0
  3 17  1  0  0  0  0
  5  6  1  0  0  0  0
  7  6  1  1  0  0  0
  7  8  1  0  0  0  0
  7  9  1  0  0  0  0
 10  9  1  1  0  0  0
 10 11  1  0  0  0  0
 10 12  1  0  0  0  0
 11 16  1  0  0  0  0
 12 13  1  6  0  0  0
 12 14  1  0  0  0  0
 14 15  1  6  0  0  0
 14 16  1  0  0  0  0
 16 27  1  1  0  0  0
 18 19  2  0  0  0  0
 18 23  1  0  0  0  0
 19 20  1  0  0  0  0
 20 21  2  0  0  0  0
 21 22  1  0  0  0  0
 21 27  1  0  0  0  0
 22 23  2  0  0  0  0
 22 25  1  0  0  0  0
 23 24  1  0  0  0  0
 25 26  2  0  0  0  0
 26 27  1  0  0  0  0
M  END
>  <CHROM.1>
-16.41341171,54.98922070,173.19889976,45.69848900,45.01243646,55.59974654
7.20696010,46.97106521,55.38085208,34.83790632,1.20621386,0.10201172,-0.89015573

>  <Name>
ligand

>  <RI>
0

>  <Rbt.Current_Directory>
/home/itssahil/PROJECTS/Mol_Feturizer/New_Systems/rnas/3GX2

>  <Rbt.Executable>
rbdock ($Id: //depot/dev/client3/rdock/2013.1/src/exe/rbdock.cxx#4 $)

>  <Rbt.Library>
libRbt.so (2013.1, Build901 2013/11/27)

>  <Rbt.Parameter_File>
/export/apps/rDock/src/rDock_2013.1_src/data/scripts/dock_solv.prm

>  <Rbt.Receptor>
prm/pocket_docking_8.prm

>  <SCORE>
-13.3419

>  <SCORE.INTER>
-10.1653

>  <SCORE.INTER.CONST>
1

>  <SCORE.INTER.POLAR>
0

>  <SCORE.INTER.ROT>
7

>  <SCORE.INTER.SOLV>
12.9199

>  <SCORE.INTER.VDW>
-19.3502

>  <SCORE.INTER.norm>
-0.376491

>  <SCORE.INTRA>
-3.17669

>  <SCORE.INTRA.DIHEDRAL>
-7.51479

>  <SCORE.INTRA.DIHEDRAL.0>
13.9704

>  <SCORE.INTRA.POLAR>
0

>  <SCORE.INTRA.POLAR.0>
0

>  <SCORE.INTRA.REPUL>
0

>  <SCORE.INTRA.REPUL.0>
0

>  <SCORE.INTRA.SOLV>
1.76592

>  <SCORE.INTRA.SOLV.lig_0>
-70.9758

>  <SCORE.INTRA.VDW>
-0.302249

>  <SCORE.INTRA.VDW.0>
-2.70686

>  <SCORE.INTRA.norm>
-0.117655

>  <SCORE.RESTR>
0

>  <SCORE.RESTR.CAVITY>
0

>  <SCORE.RESTR.norm>
0

>  <SCORE.SYSTEM>
0

>  <SCORE.SYSTEM.CONST>
0

>  <SCORE.SYSTEM.DIHEDRAL>
0

>  <SCORE.SYSTEM.SOLV>
0

>  <SCORE.SYSTEM.norm>
0

>  <SCORE.heavy>
27

>  <SCORE.norm>
-0.494146

>  <RMSD>
6.128

$$$$
ligand
 OpenBabel11021811473D
libRbt.so/2013.1/901 2013/11/27
 27 29  0  0  0  0  0  0  0  0999 V2000
   49.3669   54.4605   32.3415 N   0  0  0  0  0  0  0  0  0  0  0  0
   48.7750   55.7576   32.0220 C   0  0  2  0  0  0  0  0  0  0  0  0
   49.0419   56.2277   30.5906 C   0  0  0  0  0  0  0  0  0  0  0  0
   48.2301   56.9046   30.0525 O   0  0  0  0  0  0  0  0  0  0  0  0
   49.0301   56.8575   33.0739 C   0  0  0  0  0  0  0  0  0  0  0  0
   48.0727   58.0793   33.1489 C   0  0  0  0  0  0  0  0  0  0  0  0
   48.2638   59.1537   32.0454 C   0  0  2  0  0  0  0  0  0  0  0  0
   49.4352   60.0001   32.2716 N   0  0  0  0  0  0  0  0  0  0  0  0
   46.9597   59.9692   31.7854 C   0  0  0  0  0  0  0  0  0  0  0  0
   45.8587   59.3451   30.8631 C   0  0  1  0  0  0  0  0  0  0  0  0
   45.9955   59.4614   29.4157 O   0  0  0  0  0  0  0  0  0  0  0  0
   45.5082   57.8498   31.1019 C   0  0  1  0  0  0  0  0  0  0  0  0
   44.8802   57.4994   32.3421 O   0  0  0  0  0  0  0  0  0  0  0  0
   44.8765   57.3592   29.7624 C   0  0  1  0  0  0  0  0  0  0  0  0
   43.4979   57.0762   29.7459 O   0  0  0  0  0  0  0  0  0  0  0  0
   45.4404   58.3509   28.7400 C   0  0  2  0  0  0  0  0  0  0  0  0
   50.3753   56.2725   30.1369 O   0  0  0  0  0  0  0  0  0  0  0  0
   47.0998   53.7877   26.3088 N   0  0  0  0  0  0  0  0  0  0  0  0
   46.0046   53.9460   27.1658 C   0  0  0  0  0  0  0  0  0  0  0  0
   45.7041   55.2582   27.7341 N   0  0  0  0  0  0  0  0  0  0  0  0
   46.4917   56.3359   27.4284 C   0  0  0  0  0  0  0  0  0  0  0  0
   47.5930   56.1674   26.5666 C   0  0  0  0  0  0  0  0  0  0  0  0
   47.8924   54.8593   26.0012 C   0  0  0  0  0  0  0  0  0  0  0  0
   49.0355   54.6826   25.1050 N   0  0  0  0  0  0  0  0  0  0  0  0
   48.2420   57.4472   26.4186 N   0  0  0  0  0  0  0  0  0  0  0  0
   47.5265   58.3861   27.1984 C   0  0  0  0  0  0  0  0  0  0  0  0
   46.4381   57.7177   27.8298 N   0  0  0  0  0  0  0  0  0  0  0  0
  2  1  1  1  0  0  0
  2  3  1  0  0  0  0
  2  5  1  0  0  0  0
  3  4  1  0  0  0  0
  3 17  1  0  0  0  0
  5  6  1  0  0  0  0
  7  6  1  1  0  0  0
  7  8  1  0  0  0  0
  7  9  1  0  0  0  0
 10  9  1  1  0  0  0
 10 11  1  0  0  0  0
 10 12  1  0  0  0  0
 11 16  1  0  0  0  0
 12 13  1  1  0  0  0
 12 14  1  0  0  0  0
 14 15  1  1  0  0  0
 14 16  1  0  0  0  0
 16 27  1  1  0  0  0
 18 19  2  0  0  0  0
 18 23  1  0  0  0  0
 19 20  1  0  0  0  0
 20 21  2  0  0  0  0
 21 22  1  0  0  0  0
 21 27  1  0  0  0  0
 22 23  2  0  0  0  0
 22 25  1  0  0  0  0
 23 24  1  0  0  0  0
 25 26  2  0  0  0  0
 26 27  1  0  0  0  0
M  END
>  <CHROM.1>
149.13384500,-157.64168061,-76.42081825,-76.06114264,-81.23171514,-82.22896143
151.56810882,47.24019168,57.03522222,29.59697814,-1.50818155,0.49999586,-2.07895497

>  <Name>
ligand

>  <RI>
0

>  <Rbt.Current_Directory>
/home/itssahil/PROJECTS/Mol_Feturizer/New_Systems/rnas/3GX2

>  <Rbt.Executable>
rbdock ($Id: //depot/dev/client3/rdock/2013.1/src/exe/rbdock.cxx#4 $)

>  <Rbt.Library>
libRbt.so (2013.1, Build901 2013/11/27)

>  <Rbt.Parameter_File>
/export/apps/rDock/src/rDock_2013.1_src/data/scripts/dock_solv.prm

>  <Rbt.Receptor>
prm/pocket_docking_5.prm

>  <SCORE>
-9.90681

>  <SCORE.INTER>
-7.34781

>  <SCORE.INTER.CONST>
1

>  <SCORE.INTER.POLAR>
0

>  <SCORE.INTER.ROT>
7

>  <SCORE.INTER.SOLV>
15.6702

>  <SCORE.INTER.VDW>
-18.3886

>  <SCORE.INTER.norm>
-0.272141

>  <SCORE.INTRA>
-2.559

>  <SCORE.INTRA.DIHEDRAL>
-2.52702

>  <SCORE.INTRA.DIHEDRAL.0>
13.9704

>  <SCORE.INTRA.POLAR>
0

>  <SCORE.INTRA.POLAR.0>
0

>  <SCORE.INTRA.REPUL>
0

>  <SCORE.INTRA.REPUL.0>
0

>  <SCORE.INTRA.SOLV>
2.20798

>  <SCORE.INTRA.SOLV.lig_0>
-70.9758

>  <SCORE.INTRA.VDW>
-2.39948

>  <SCORE.INTRA.VDW.0>
-2.70686

>  <SCORE.INTRA.norm>
-0.0947779

>  <SCORE.RESTR>
0

>  <SCORE.RESTR.CAVITY>
0

>  <SCORE.RESTR.norm>
0

>  <SCORE.SYSTEM>
0

>  <SCORE.SYSTEM.CONST>
0

>  <SCORE.SYSTEM.DIHEDRAL>
0

>  <SCORE.SYSTEM.SOLV>
0

>  <SCORE.SYSTEM.norm>
0

>  <SCORE.heavy>
27

>  <SCORE.norm>
-0.366919

>  <RMSD>
6.133

$$$$
ligand
 OpenBabel11021811473D
libRbt.so/2013.1/901 2013/11/27
 27 29  0  0  0  0  0  0  0  0999 V2000
   47.3897   54.7505   34.3950 N   0  0  0  0  0  0  0  0  0  0  0  0
   48.4425   55.0443   33.4254 C   0  0  2  0  0  0  0  0  0  0  0  0
   49.1282   53.8008   32.8555 C   0  0  0  0  0  0  0  0  0  0  0  0
   49.1473   52.8109   33.5086 O   0  0  0  0  0  0  0  0  0  0  0  0
   49.4425   56.1316   33.8716 C   0  0  0  0  0  0  0  0  0  0  0  0
   48.9506   57.5950   34.0491 C   0  0  0  0  0  0  0  0  0  0  0  0
   48.8130   58.4225   32.7434 C   0  0  2  0  0  0  0  0  0  0  0  0
   50.0005   59.2250   32.4501 N   0  0  0  0  0  0  0  0  0  0  0  0
   47.4907   59.2492   32.7067 C   0  0  0  0  0  0  0  0  0  0  0  0
   46.4472   58.9412   31.5804 C   0  0  1  0  0  0  0  0  0  0  0  0
   46.8211   59.1585   30.1876 O   0  0  0  0  0  0  0  0  0  0  0  0
   45.7973   57.5293   31.5931 C   0  0  1  0  0  0  0  0  0  0  0  0
   44.9349   57.1993   32.6897 O   0  0  0  0  0  0  0  0  0  0  0  0
   45.2974   57.2965   30.1336 C   0  0  1  0  0  0  0  0  0  0  0  0
   43.9091   57.2944   29.9025 O   0  0  0  0  0  0  0  0  0  0  0  0
   46.1816   58.2455   29.3184 C   0  0  2  0  0  0  0  0  0  0  0  0
   49.2767   53.6978   31.4580 O   0  0  0  0  0  0  0  0  0  0  0  0
   50.9177   55.5929   29.1792 N   0  0  0  0  0  0  0  0  0  0  0  0
   50.3012   56.1765   30.2919 C   0  0  0  0  0  0  0  0  0  0  0  0
   49.0163   56.8563   30.1436 N   0  0  0  0  0  0  0  0  0  0  0  0
   48.4118   56.9225   28.9166 C   0  0  0  0  0  0  0  0  0  0  0  0
   49.0400   56.3341   27.8016 C   0  0  0  0  0  0  0  0  0  0  0  0
   50.3208   55.6574   27.9500 C   0  0  0  0  0  0  0  0  0  0  0  0
   50.9746   55.0447   26.7930 N   0  0  0  0  0  0  0  0  0  0  0  0
   48.1974   56.5501   26.6508 N   0  0  0  0  0  0  0  0  0  0  0  0
   47.0600   57.2741   27.0792 C   0  0  0  0  0  0  0  0  0  0  0  0
   47.1732   57.5125   28.4793 N   0  0  0  0  0  0  0  0  0  0  0  0
  2  1  1  1  0  0  0
  2  3  1  0  0  0  0
  2  5  1  0  0  0  0
  3  4  1  0  0  0  0
  3 17  1  0  0  0  0
  5  6  1  0  0  0  0
  7  6  1  1  0  0  0
  7  8  1  0  0  0  0
  7  9  1  0  0  0  0
 10  9  1  1  0  0  0
 10 11  1  0  0  0  0
 10 12  1  0  0  0  0
 11 16  1  0  0  0  0
 12 13  1  1  0  0  0
 12 14  1  0  0  0  0
 14 15  1  1  0  0  0
 14 16  1  0  0  0  0
 16 27  1  1  0  0  0
 18 19  2  0  0  0  0
 18 23  1  0  0  0  0
 19 20  1  0  0  0  0
 20 21  2  0  0  0  0
 21 22  1  0  0  0  0
 21 27  1  0  0  0  0
 22 23  2  0  0  0  0
 22 25  1  0  0  0  0
 23 24  1  0  0  0  0
 25 26  2  0  0  0  0
 26 27  1  0  0  0  0
M  END
>  <CHROM.1>
-26.51502165,-66.22057910,-79.84153755,-94.68795464,-117.76413111,-63.01018228
44.60903956,48.06522120,56.65988760,30.81420072,-1.59534281,0.70113635,-1.40342809

>  <Name>
ligand

>  <RI>
0

>  <Rbt.Current_Directory>
/home/itssahil/PROJECTS/Mol_Feturizer/New_Systems/rnas/3GX2

>  <Rbt.Executable>
rbdock ($Id: //depot/dev/client3/rdock/2013.1/src/exe/rbdock.cxx#4 $)

>  <Rbt.Library>
libRbt.so (2013.1, Build901 2013/11/27)

>  <Rbt.Parameter_File>
/export/apps/rDock/src/rDock_2013.1_src/data/scripts/dock_solv.prm

>  <Rbt.Receptor>
prm/pocket_docking_3.prm

>  <SCORE>
-8.0006

>  <SCORE.INTER>
-7.00562

>  <SCORE.INTER.CONST>
1

>  <SCORE.INTER.POLAR>
0

>  <SCORE.INTER.ROT>
7

>  <SCORE.INTER.SOLV>
15.0619

>  <SCORE.INTER.VDW>
-17.9577

>  <SCORE.INTER.norm>
-0.259467

>  <SCORE.INTRA>
-1.10195

>  <SCORE.INTRA.DIHEDRAL>
1.04771

>  <SCORE.INTRA.DIHEDRAL.0>
13.9704

>  <SCORE.INTRA.POLAR>
0

>  <SCORE.INTRA.POLAR.0>
0

>  <SCORE.INTRA.REPUL>
0

>  <SCORE.INTRA.REPUL.0>
0

>  <SCORE.INTRA.SOLV>
1.92757

>  <SCORE.INTRA.SOLV.lig_0>
-70.9758

>  <SCORE.INTRA.VDW>
-2.5896

>  <SCORE.INTRA.VDW.0>
-2.70686

>  <SCORE.INTRA.norm>
-0.0408131

>  <SCORE.RESTR>
0.106972

>  <SCORE.RESTR.CAVITY>
0.106972

>  <SCORE.RESTR.norm>
0.00396194

>  <SCORE.SYSTEM>
0

>  <SCORE.SYSTEM.CONST>
0

>  <SCORE.SYSTEM.DIHEDRAL>
0

>  <SCORE.SYSTEM.SOLV>
0

>  <SCORE.SYSTEM.norm>
0

>  <SCORE.heavy>
27

>  <SCORE.norm>
-0.296318

>  <RMSD>
6.134

$$$$
ligand
 OpenBabel11021811473D
libRbt.so/2013.1/901 2013/11/27
 27 29  0  0  0  0  0  0  0  0999 V2000
   46.7017   54.3735   35.4605 N   0  0  0  0  0  0  0  0  0  0  0  0
   47.9441   53.8715   34.8778 C   0  0  2  0  0  0  0  0  0  0  0  0
   49.1986   54.5990   35.3657 C   0  0  0  0  0  0  0  0  0  0  0  0
   49.6746   54.2801   36.4043 O   0  0  0  0  0  0  0  0  0  0  0  0
   47.9097   53.6932   33.3454 C   0  0  0  0  0  0  0  0  0  0  0  0
   47.5796   54.9137   32.4418 C   0  0  0  0  0  0  0  0  0  0  0  0
   46.1855   55.5585   32.6633 C   0  0  2  0  0  0  0  0  0  0  0  0
   45.4396   55.7438   31.4186 N   0  0  0  0  0  0  0  0  0  0  0  0
   46.2667   56.8546   33.5275 C   0  0  0  0  0  0  0  0  0  0  0  0
   46.9328   58.1279   32.9052 C   0  0  1  0  0  0  0  0  0  0  0  0
   48.2495   58.0109   32.2888 O   0  0  0  0  0  0  0  0  0  0  0  0
   46.0896   58.9275   31.8730 C   0  0  1  0  0  0  0  0  0  0  0  0
   44.9095   59.5915   32.3437 O   0  0  0  0  0  0  0  0  0  0  0  0
   47.1291   59.7279   31.0287 C   0  0  1  0  0  0  0  0  0  0  0  0
   47.1807   61.1246   31.1943 O   0  0  0  0  0  0  0  0  0  0  0  0
   48.4132   58.9132   31.2133 C   0  0  2  0  0  0  0  0  0  0  0  0
   50.0117   55.2461   34.4139 O   0  0  0  0  0  0  0  0  0  0  0  0
   50.6524   54.4595   29.0599 N   0  0  0  0  0  0  0  0  0  0  0  0
   50.4517   54.7408   30.4161 C   0  0  0  0  0  0  0  0  0  0  0  0
   49.8292   56.0003   30.8176 N   0  0  0  0  0  0  0  0  0  0  0  0
   49.4393   56.9071   29.8685 C   0  0  0  0  0  0  0  0  0  0  0  0
   49.6468   56.6169   28.5059 C   0  0  0  0  0  0  0  0  0  0  0  0
   50.2679   55.3619   28.1065 C   0  0  0  0  0  0  0  0  0  0  0  0
   50.4833   55.0582   26.6913 N   0  0  0  0  0  0  0  0  0  0  0  0
   49.1510   57.7298   27.7334 N   0  0  0  0  0  0  0  0  0  0  0  0
   48.6465   58.6924   28.6391 C   0  0  0  0  0  0  0  0  0  0  0  0
   48.8142   58.2007   29.9658 N   0  0  0  0  0  0  0  0  0  0  0  0
  2  1  1  6  0  0  0
  2  3  1  0  0  0  0
  2  5  1  0  0  0  0
  3  4  1  0  0  0  0
  3 17  1  0  0  0  0
  5  6  1  0  0  0  0
  7  6  1  6  0  0  0
  7  8  1  0  0  0  0
  7  9  1  0  0  0  0
 10  9  1  6  0  0  0
 10 11  1  0  0  0  0
 10 12  1  0  0  0  0
 11 16  1  0  0  0  0
 12 13  1  1  0  0  0
 12 14  1  0  0  0  0
 14 15  1  1  0  0  0
 14 16  1  0  0  0  0
 16 27  1  6  0  0  0
 18 19  2  0  0  0  0
 18 23  1  0  0  0  0
 19 20  1  0  0  0  0
 20 21  2  0  0  0  0
 21 22  1  0  0  0  0
 21 27  1  0  0  0  0
 22 23  2  0  0  0  0
 22 25  1  0  0  0  0
 23 24  1  0  0  0  0
 25 26  2  0  0  0  0
 26 27  1  0  0  0  0
M  END
>  <CHROM.1>
82.03964238,57.67501227,-60.77584939,-130.01664355,69.77064893,-50.68699327
-21.90993956,48.23705764,56.58923220,31.66665527,1.84039934,-0.88476554,2.19603345

>  <Name>
ligand

>  <RI>
0

>  <Rbt.Current_Directory>
/home/itssahil/PROJECTS/Mol_Feturizer/New_Systems/rnas/3GX2

>  <Rbt.Executable>
rbdock ($Id: //depot/dev/client3/rdock/2013.1/src/exe/rbdock.cxx#4 $)

>  <Rbt.Library>
libRbt.so (2013.1, Build901 2013/11/27)

>  <Rbt.Parameter_File>
/export/apps/rDock/src/rDock_2013.1_src/data/scripts/dock_solv.prm

>  <Rbt.Receptor>
prm/pocket_docking_4.prm

>  <SCORE>
-12.159

>  <SCORE.INTER>
-11.459

>  <SCORE.INTER.CONST>
1

>  <SCORE.INTER.POLAR>
0

>  <SCORE.INTER.ROT>
7

>  <SCORE.INTER.SOLV>
12.1082

>  <SCORE.INTER.VDW>
-19.9421

>  <SCORE.INTER.norm>
-0.424407

>  <SCORE.INTRA>
-0.705799

>  <SCORE.INTRA.DIHEDRAL>
-3.85248

>  <SCORE.INTRA.DIHEDRAL.0>
13.9704

>  <SCORE.INTRA.POLAR>
0

>  <SCORE.INTRA.POLAR.0>
0

>  <SCORE.INTRA.REPUL>
0

>  <SCORE.INTRA.REPUL.0>
0

>  <SCORE.INTRA.SOLV>
4.48506

>  <SCORE.INTRA.SOLV.lig_0>
-70.9758

>  <SCORE.INTRA.VDW>
-1.02209

>  <SCORE.INTRA.VDW.0>
-2.70686

>  <SCORE.INTRA.norm>
-0.0261407

>  <SCORE.RESTR>
0.0057397

>  <SCORE.RESTR.CAVITY>
0.0057397

>  <SCORE.RESTR.norm>
0.000212582

>  <SCORE.SYSTEM>
0

>  <SCORE.SYSTEM.CONST>
0

>  <SCORE.SYSTEM.DIHEDRAL>
0

>  <SCORE.SYSTEM.SOLV>
0

>  <SCORE.SYSTEM.norm>
0

>  <SCORE.heavy>
27

>  <SCORE.norm>
-0.450335

>  <RMSD>
6.135

$$$$
ligand
 OpenBabel11021811483D
libRbt.so/2013.1/901 2013/11/27
 27 29  0  0  0  0  0  0  0  0999 V2000
   48.0240   54.4728   29.9856 N   0  0  0  0  0  0  0  0  0  0  0  0
   49.4216   54.8938   29.9196 C   0  0  2  0  0  0  0  0  0  0  0  0
   50.4224   53.7371   29.9604 C   0  0  0  0  0  0  0  0  0  0  0  0
   51.3976   53.8034   29.2885 O   0  0  0  0  0  0  0  0  0  0  0  0
   49.7926   56.0445   30.8785 C   0  0  0  0  0  0  0  0  0  0  0  0
   49.6960   55.8207   32.4133 C   0  0  0  0  0  0  0  0  0  0  0  0
   48.2907   55.4416   32.9518 C   0  0  2  0  0  0  0  0  0  0  0  0
   47.2427   56.3583   32.5032 N   0  0  0  0  0  0  0  0  0  0  0  0
   48.2916   55.2208   34.4960 C   0  0  0  0  0  0  0  0  0  0  0  0
   46.9941   54.6629   35.1724 C   0  0  1  0  0  0  0  0  0  0  0  0
   45.6951   55.1622   34.7360 O   0  0  0  0  0  0  0  0  0  0  0  0
   46.8271   53.1178   35.2021 C   0  0  1  0  0  0  0  0  0  0  0  0
   47.7478   52.3604   35.9982 O   0  0  0  0  0  0  0  0  0  0  0  0
   45.2951   52.8757   35.3711 C   0  0  1  0  0  0  0  0  0  0  0  0
   44.8379   52.3647   36.6002 O   0  0  0  0  0  0  0  0  0  0  0  0
   44.6868   54.1770   34.8387 C   0  0  2  0  0  0  0  0  0  0  0  0
   50.4303   52.8966   31.0914 O   0  0  0  0  0  0  0  0  0  0  0  0
   41.4213   51.0024   31.8814 N   0  0  0  0  0  0  0  0  0  0  0  0
   41.8667   50.7817   33.1897 C   0  0  0  0  0  0  0  0  0  0  0  0
   42.7499   51.7506   33.8350 N   0  0  0  0  0  0  0  0  0  0  0  0
   43.1421   52.8770   33.1624 C   0  0  0  0  0  0  0  0  0  0  0  0
   42.6907   53.0906   31.8454 C   0  0  0  0  0  0  0  0  0  0  0  0
   41.8112   52.1242   31.2026 C   0  0  0  0  0  0  0  0  0  0  0  0
   41.3405   52.3448   29.8347 N   0  0  0  0  0  0  0  0  0  0  0  0
   43.2498   54.3362   31.3798 N   0  0  0  0  0  0  0  0  0  0  0  0
   44.0423   54.8697   32.4233 C   0  0  0  0  0  0  0  0  0  0  0  0
   43.9868   53.9817   33.5361 N   0  0  0  0  0  0  0  0  0  0  0  0
  2  1  1  1  0  0  0
  2  3  1  0  0  0  0
  2  5  1  0  0  0  0
  3  4  1  0  0  0  0
  3 17  1  0  0  0  0
  5  6  1  0  0  0  0
  7  6  1  1  0  0  0
  7  8  1  0  0  0  0
  7  9  1  0  0  0  0
 10  9  1  6  0  0  0
 10 11  1  0  0  0  0
 10 12  1  0  0  0  0
 11 16  1  0  0  0  0
 12 13  1  1  0  0  0
 12 14  1  0  0  0  0
 14 15  1  1  0  0  0
 14 16  1  0  0  0  0
 16 27  1  6  0  0  0
 18 19  2  0  0  0  0
 18 23  1  0  0  0  0
 19 20  1  0  0  0  0
 20 21  2  0  0  0  0
 21 22  1  0  0  0  0
 21 27  1  0  0  0  0
 22 23  2  0  0  0  0
 22 25  1  0  0  0  0
 23 24  1  0  0  0  0
 25 26  2  0  0  0  0
 26 27  1  0  0  0  0
M  END
>  <CHROM.1>
142.16014781,63.73650747,-59.55378175,-51.41395808,-172.63243946,-41.18537221
164.23682177,46.09391477,53.73287517,32.74967158,0.22325279,-0.31226791,-1.59019480

>  <Name>
ligand

>  <RI>
0

>  <Rbt.Current_Directory>
/home/itssahil/PROJECTS/Mol_Feturizer/New_Systems/rnas/3GX2

>  <Rbt.Executable>
rbdock ($Id: //depot/dev/client3/rdock/2013.1/src/exe/rbdock.cxx#4 $)

>  <Rbt.Library>
libRbt.so (2013.1, Build901 2013/11/27)

>  <Rbt.Parameter_File>
/export/apps/rDock/src/rDock_2013.1_src/data/scripts/dock_solv.prm

>  <Rbt.Receptor>
prm/pocket_docking_8.prm

>  <SCORE>
-8.73002

>  <SCORE.INTER>
-7.41519

>  <SCORE.INTER.CONST>
1

>  <SCORE.INTER.POLAR>
0

>  <SCORE.INTER.ROT>
7

>  <SCORE.INTER.SOLV>
8.32578

>  <SCORE.INTER.VDW>
-15.9854

>  <SCORE.INTER.norm>
-0.274637

>  <SCORE.INTRA>
-1.31483

>  <SCORE.INTRA.DIHEDRAL>
-7.25803

>  <SCORE.INTRA.DIHEDRAL.0>
13.9704

>  <SCORE.INTRA.POLAR>
0

>  <SCORE.INTRA.POLAR.0>
0

>  <SCORE.INTRA.REPUL>
0

>  <SCORE.INTRA.REPUL.0>
0

>  <SCORE.INTRA.SOLV>
5.54474

>  <SCORE.INTRA.SOLV.lig_0>
-70.9758

>  <SCORE.INTRA.VDW>
-0.458185

>  <SCORE.INTRA.VDW.0>
-2.70686

>  <SCORE.INTRA.norm>
-0.0486975

>  <SCORE.RESTR>
0

>  <SCORE.RESTR.CAVITY>
0

>  <SCORE.RESTR.norm>
0

>  <SCORE.SYSTEM>
0

>  <SCORE.SYSTEM.CONST>
0

>  <SCORE.SYSTEM.DIHEDRAL>
0

>  <SCORE.SYSTEM.SOLV>
0

>  <SCORE.SYSTEM.norm>
0

>  <SCORE.heavy>
27

>  <SCORE.norm>
-0.323334

>  <RMSD>
6.136

$$$$
ligand
 OpenBabel11021811483D
libRbt.so/2013.1/901 2013/11/27
 27 29  0  0  0  0  0  0  0  0999 V2000
   49.4560   56.5742   28.5914 N   0  0  0  0  0  0  0  0  0  0  0  0
   49.9192   55.9090   29.8071 C   0  0  2  0  0  0  0  0  0  0  0  0
   49.8928   54.3811   29.7290 C   0  0  0  0  0  0  0  0  0  0  0  0
   48.9712   53.8535   29.2008 O   0  0  0  0  0  0  0  0  0  0  0  0
   49.3049   56.4553   31.1130 C   0  0  0  0  0  0  0  0  0  0  0  0
   49.5863   57.9249   31.5329 C   0  0  0  0  0  0  0  0  0  0  0  0
   48.9174   58.3877   32.8546 C   0  0  2  0  0  0  0  0  0  0  0  0
   49.0667   59.8228   33.0962 N   0  0  0  0  0  0  0  0  0  0  0  0
   49.3507   57.5134   34.0716 C   0  0  0  0  0  0  0  0  0  0  0  0
   48.9085   56.0116   34.1087 C   0  0  1  0  0  0  0  0  0  0  0  0
   49.3757   55.1607   35.1972 O   0  0  0  0  0  0  0  0  0  0  0  0
   47.3831   55.7268   34.0195 C   0  0  1  0  0  0  0  0  0  0  0  0
   46.7126   56.0495   32.7942 O   0  0  0  0  0  0  0  0  0  0  0  0
   47.1954   54.3078   34.6402 C   0  0  1  0  0  0  0  0  0  0  0  0
   46.8518   53.2493   33.7787 O   0  0  0  0  0  0  0  0  0  0  0  0
   48.4320   54.1635   35.5329 C   0  0  2  0  0  0  0  0  0  0  0  0
   51.1132   53.6833   29.8264 O   0  0  0  0  0  0  0  0  0  0  0  0
   44.5152   53.8080   39.2772 N   0  0  0  0  0  0  0  0  0  0  0  0
   44.3794   53.6900   37.8892 C   0  0  0  0  0  0  0  0  0  0  0  0
   45.5519   53.8150   37.0262 N   0  0  0  0  0  0  0  0  0  0  0  0
   46.7859   54.0459   37.5731 C   0  0  0  0  0  0  0  0  0  0  0  0
   46.9135   54.1651   38.9708 C   0  0  0  0  0  0  0  0  0  0  0  0
   45.7445   54.0412   39.8302 C   0  0  0  0  0  0  0  0  0  0  0  0
   45.8752   54.1639   41.2825 N   0  0  0  0  0  0  0  0  0  0  0  0
   48.3038   54.4047   39.2718 N   0  0  0  0  0  0  0  0  0  0  0  0
   49.0116   54.4317   38.0472 C   0  0  0  0  0  0  0  0  0  0  0  0
   48.0896   54.2095   36.9839 N   0  0  0  0  0  0  0  0  0  0  0  0
  2  1  1  6  0  0  0
  2  3  1  0  0  0  0
  2  5  1  0  0  0  0
  3  4  1  0  0  0  0
  3 17  1  0  0  0  0
  5  6  1  0  0  0  0
  7  6  1  6  0  0  0
  7  8  1  0  0  0  0
  7  9  1  0  0  0  0
 10  9  1  1  0  0  0
 10 11  1  0  0  0  0
 10 12  1  0  0  0  0
 11 16  1  0  0  0  0
 12 13  1  6  0  0  0
 12 14  1  0  0  0  0
 14 15  1  6  0  0  0
 14 16  1  0  0  0  0
 16 27  1  1  0  0  0
 18 19  2  0  0  0  0
 18 23  1  0  0  0  0
 19 20  1  0  0  0  0
 20 21  2  0  0  0  0
 21 22  1  0  0  0  0
 21 27  1  0  0  0  0
 22 23  2  0  0  0  0
 22 25  1  0  0  0  0
 23 24  1  0  0  0  0
 25 26  2  0  0  0  0
 26 27  1  0  0  0  0
M  END
>  <CHROM.1>
-40.45884037,-63.51727716,179.54001303,-172.01151811,-66.49565416,176.19821867
139.23796787,48.02781936,55.18547130,34.53059615,0.51502992,-1.15275786,-2.36679821

>  <Name>
ligand

>  <RI>
0

>  <Rbt.Current_Directory>
/home/itssahil/PROJECTS/Mol_Feturizer/New_Systems/rnas/3GX2

>  <Rbt.Executable>
rbdock ($Id: //depot/dev/client3/rdock/2013.1/src/exe/rbdock.cxx#4 $)

>  <Rbt.Library>
libRbt.so (2013.1, Build901 2013/11/27)

>  <Rbt.Parameter_File>
/export/apps/rDock/src/rDock_2013.1_src/data/scripts/dock_solv.prm

>  <Rbt.Receptor>
prm/pocket_docking_8.prm

>  <SCORE>
-15.4437

>  <SCORE.INTER>
-11.6479

>  <SCORE.INTER.CONST>
1

>  <SCORE.INTER.POLAR>
0

>  <SCORE.INTER.ROT>
7

>  <SCORE.INTER.SOLV>
18.6774

>  <SCORE.INTER.VDW>
-22.2577

>  <SCORE.INTER.norm>
-0.431403

>  <SCORE.INTRA>
-3.79583

>  <SCORE.INTRA.DIHEDRAL>
-9.15938

>  <SCORE.INTRA.DIHEDRAL.0>
13.9704

>  <SCORE.INTRA.POLAR>
0

>  <SCORE.INTRA.POLAR.0>
0

>  <SCORE.INTRA.REPUL>
0

>  <SCORE.INTRA.REPUL.0>
0

>  <SCORE.INTRA.SOLV>
-0.0812664

>  <SCORE.INTRA.SOLV.lig_0>
-70.9758

>  <SCORE.INTRA.VDW>
0.824493

>  <SCORE.INTRA.VDW.0>
-2.70686

>  <SCORE.INTRA.norm>
-0.140586

>  <SCORE.RESTR>
0

>  <SCORE.RESTR.CAVITY>
0

>  <SCORE.RESTR.norm>
0

>  <SCORE.SYSTEM>
0

>  <SCORE.SYSTEM.CONST>
0

>  <SCORE.SYSTEM.DIHEDRAL>
0

>  <SCORE.SYSTEM.SOLV>
0

>  <SCORE.SYSTEM.norm>
0

>  <SCORE.heavy>
27

>  <SCORE.norm>
-0.571989

>  <RMSD>
6.138

$$$$
ligand
 OpenBabel11021811473D
libRbt.so/2013.1/901 2013/11/27
 27 29  0  0  0  0  0  0  0  0999 V2000
   47.0159   53.1315   35.7328 N   0  0  0  0  0  0  0  0  0  0  0  0
   47.3249   54.4811   35.2658 C   0  0  2  0  0  0  0  0  0  0  0  0
   46.5280   54.9102   34.0320 C   0  0  0  0  0  0  0  0  0  0  0  0
   46.2289   54.0870   33.2323 O   0  0  0  0  0  0  0  0  0  0  0  0
   48.8318   54.7909   35.1463 C   0  0  0  0  0  0  0  0  0  0  0  0
   49.2904   56.2414   34.8286 C   0  0  0  0  0  0  0  0  0  0  0  0
   48.9008   56.7792   33.4259 C   0  0  2  0  0  0  0  0  0  0  0  0
   49.7578   56.2615   32.3594 N   0  0  0  0  0  0  0  0  0  0  0  0
   48.7699   58.3334   33.4066 C   0  0  0  0  0  0  0  0  0  0  0  0
   48.1480   59.0159   32.1417 C   0  0  1  0  0  0  0  0  0  0  0  0
   48.8701   58.9569   30.8759 O   0  0  0  0  0  0  0  0  0  0  0  0
   46.6898   58.6205   31.7766 C   0  0  1  0  0  0  0  0  0  0  0  0
   45.6460   59.0038   32.6814 O   0  0  0  0  0  0  0  0  0  0  0  0
   46.5439   58.9536   30.2595 C   0  0  1  0  0  0  0  0  0  0  0  0
   45.7222   60.0371   29.8963 O   0  0  0  0  0  0  0  0  0  0  0  0
   47.9942   58.9276   29.7669 C   0  0  2  0  0  0  0  0  0  0  0  0
   45.7746   56.0991   34.1003 O   0  0  0  0  0  0  0  0  0  0  0  0
   48.1491   53.5153   29.3548 N   0  0  0  0  0  0  0  0  0  0  0  0
   47.7964   54.2739   30.4768 C   0  0  0  0  0  0  0  0  0  0  0  0
   47.8115   55.7334   30.4073 N   0  0  0  0  0  0  0  0  0  0  0  0
   48.1687   56.3620   29.2444 C   0  0  0  0  0  0  0  0  0  0  0  0
   48.5240   55.5910   28.1204 C   0  0  0  0  0  0  0  0  0  0  0  0
   48.5095   54.1366   28.1906 C   0  0  0  0  0  0  0  0  0  0  0  0
   48.8774   53.3339   27.0237 N   0  0  0  0  0  0  0  0  0  0  0  0
   48.8536   56.4958   27.0463 N   0  0  0  0  0  0  0  0  0  0  0  0
   48.6971   57.8156   27.5311 C   0  0  0  0  0  0  0  0  0  0  0  0
   48.2717   57.7538   28.8895 N   0  0  0  0  0  0  0  0  0  0  0  0
  2  1  1  6  0  0  0
  2  3  1  0  0  0  0
  2  5  1  0  0  0  0
  3  4  1  0  0  0  0
  3 17  1  0  0  0  0
  5  6  1  0  0  0  0
  7  6  1  1  0  0  0
  7  8  1  0  0  0  0
  7  9  1  0  0  0  0
 10  9  1  1  0  0  0
 10 11  1  0  0  0  0
 10 12  1  0  0  0  0
 11 16  1  0  0  0  0
 12 13  1  1  0  0  0
 12 14  1  0  0  0  0
 14 15  1  1  0  0  0
 14 16  1  0  0  0  0
 16 27  1  1  0  0  0
 18 19  2  0  0  0  0
 18 23  1  0  0  0  0
 19 20  1  0  0  0  0
 20 21  2  0  0  0  0
 21 22  1  0  0  0  0
 21 27  1  0  0  0  0
 22 23  2  0  0  0  0
 22 25  1  0  0  0  0
 23 24  1  0  0  0  0
 25 26  2  0  0  0  0
 26 27  1  0  0  0  0
M  END
>  <CHROM.1>
-32.71435767,-172.56344565,-66.00933834,-77.66454423,-169.68481242,-66.70778956
62.16405906,47.79735092,56.46718018,31.37719153,-2.13369109,1.34257536,-0.78937689

>  <Name>
ligand

>  <RI>
0

>  <Rbt.Current_Directory>
/home/itssahil/PROJECTS/Mol_Feturizer/New_Systems/rnas/3GX2

>  <Rbt.Executable>
rbdock ($Id: //depot/dev/client3/rdock/2013.1/src/exe/rbdock.cxx#4 $)

>  <Rbt.Library>
libRbt.so (2013.1, Build901 2013/11/27)

>  <Rbt.Parameter_File>
/export/apps/rDock/src/rDock_2013.1_src/data/scripts/dock_solv.prm

>  <Rbt.Receptor>
prm/pocket_docking_7.prm

>  <SCORE>
-10.4142

>  <SCORE.INTER>
-6.60536

>  <SCORE.INTER.CONST>
1

>  <SCORE.INTER.POLAR>
0

>  <SCORE.INTER.ROT>
7

>  <SCORE.INTER.SOLV>
11.6454

>  <SCORE.INTER.VDW>
-16.552

>  <SCORE.INTER.norm>
-0.244643

>  <SCORE.INTRA>
-3.80881

>  <SCORE.INTRA.DIHEDRAL>
-7.5891

>  <SCORE.INTRA.DIHEDRAL.0>
13.9704

>  <SCORE.INTRA.POLAR>
0

>  <SCORE.INTRA.POLAR.0>
0

>  <SCORE.INTRA.REPUL>
0

>  <SCORE.INTRA.REPUL.0>
0

>  <SCORE.INTRA.SOLV>
4.57221

>  <SCORE.INTRA.SOLV.lig_0>
-70.9758

>  <SCORE.INTRA.VDW>
-2.30037

>  <SCORE.INTRA.VDW.0>
-2.70686

>  <SCORE.INTRA.norm>
-0.141067

>  <SCORE.RESTR>
0

>  <SCORE.RESTR.CAVITY>
0

>  <SCORE.RESTR.norm>
0

>  <SCORE.SYSTEM>
0

>  <SCORE.SYSTEM.CONST>
0

>  <SCORE.SYSTEM.DIHEDRAL>
0

>  <SCORE.SYSTEM.SOLV>
0

>  <SCORE.SYSTEM.norm>
0

>  <SCORE.heavy>
27

>  <SCORE.norm>
-0.38571

>  <RMSD>
6.140

$$$$
ligand
 OpenBabel11021811473D
libRbt.so/2013.1/901 2013/11/27
 27 29  0  0  0  0  0  0  0  0999 V2000
   47.4203   53.1467   34.7569 N   0  0  0  0  0  0  0  0  0  0  0  0
   46.7231   54.4263   34.6491 C   0  0  2  0  0  0  0  0  0  0  0  0
   45.2349   54.3552   34.9978 C   0  0  0  0  0  0  0  0  0  0  0  0
   44.5945   55.3531   34.9680 O   0  0  0  0  0  0  0  0  0  0  0  0
   46.9987   55.2007   33.3431 C   0  0  0  0  0  0  0  0  0  0  0  0
   48.4526   55.2924   32.8020 C   0  0  0  0  0  0  0  0  0  0  0  0
   49.4809   55.9719   33.7452 C   0  0  2  0  0  0  0  0  0  0  0  0
   49.7256   55.2058   34.9671 N   0  0  0  0  0  0  0  0  0  0  0  0
   49.1302   57.4669   34.0195 C   0  0  0  0  0  0  0  0  0  0  0  0
   48.8304   58.4009   32.7988 C   0  0  1  0  0  0  0  0  0  0  0  0
   49.7306   58.3805   31.6514 O   0  0  0  0  0  0  0  0  0  0  0  0
   47.4079   58.3105   32.1789 C   0  0  1  0  0  0  0  0  0  0  0  0
   46.3009   58.7487   32.9774 O   0  0  0  0  0  0  0  0  0  0  0  0
   47.5608   58.8538   30.7244 C   0  0  1  0  0  0  0  0  0  0  0  0
   46.9804   60.0991   30.4191 O   0  0  0  0  0  0  0  0  0  0  0  0
   49.0512   58.6427   30.4400 C   0  0  2  0  0  0  0  0  0  0  0  0
   44.5739   53.1175   34.8681 O   0  0  0  0  0  0  0  0  0  0  0  0
   47.8040   56.6359   25.5508 N   0  0  0  0  0  0  0  0  0  0  0  0
   47.2947   57.7929   26.1514 C   0  0  0  0  0  0  0  0  0  0  0  0
   47.7468   58.1849   27.4844 N   0  0  0  0  0  0  0  0  0  0  0  0
   48.6707   57.4227   28.1482 C   0  0  0  0  0  0  0  0  0  0  0  0
   49.1768   56.2588   27.5373 C   0  0  0  0  0  0  0  0  0  0  0  0
   48.7252   55.8683   26.2091 C   0  0  0  0  0  0  0  0  0  0  0  0
   49.2506   54.6599   25.5724 N   0  0  0  0  0  0  0  0  0  0  0  0
   50.1201   55.6537   28.4456 N   0  0  0  0  0  0  0  0  0  0  0  0
   50.1767   56.4587   29.6076 C   0  0  0  0  0  0  0  0  0  0  0  0
   49.2879   57.5599   29.4419 N   0  0  0  0  0  0  0  0  0  0  0  0
  2  1  1  6  0  0  0
  2  3  1  0  0  0  0
  2  5  1  0  0  0  0
  3  4  1  0  0  0  0
  3 17  1  0  0  0  0
  5  6  1  0  0  0  0
  7  6  1  1  0  0  0
  7  8  1  0  0  0  0
  7  9  1  0  0  0  0
 10  9  1  1  0  0  0
 10 11  1  0  0  0  0
 10 12  1  0  0  0  0
 11 16  1  0  0  0  0
 12 13  1  1  0  0  0
 12 14  1  0  0  0  0
 14 15  1  1  0  0  0
 14 16  1  0  0  0  0
 16 27  1  6  0  0  0
 18 19  2  0  0  0  0
 18 23  1  0  0  0  0
 19 20  1  0  0  0  0
 20 21  2  0  0  0  0
 21 22  1  0  0  0  0
 21 27  1  0  0  0  0
 22 23  2  0  0  0  0
 22 25  1  0  0  0  0
 23 24  1  0  0  0  0
 25 26  2  0  0  0  0
 26 27  1  0  0  0  0
M  END
>  <CHROM.1>
178.27855129,-43.54931252,-60.22813703,66.25240707,-50.29055298,-47.05624192
174.10286830,47.95787309,56.57512871,31.16823068,2.62534195,1.27547995,0.79969166

>  <Name>
ligand

>  <RI>
0

>  <Rbt.Current_Directory>
/home/itssahil/PROJECTS/Mol_Feturizer/New_Systems/rnas/3GX2

>  <Rbt.Executable>
rbdock ($Id: //depot/dev/client3/rdock/2013.1/src/exe/rbdock.cxx#4 $)

>  <Rbt.Library>
libRbt.so (2013.1, Build901 2013/11/27)

>  <Rbt.Parameter_File>
/export/apps/rDock/src/rDock_2013.1_src/data/scripts/dock_solv.prm

>  <Rbt.Receptor>
prm/pocket_docking_4.prm

>  <SCORE>
-11.6905

>  <SCORE.INTER>
-9.72483

>  <SCORE.INTER.CONST>
1

>  <SCORE.INTER.POLAR>
0

>  <SCORE.INTER.ROT>
7

>  <SCORE.INTER.SOLV>
14.2046

>  <SCORE.INTER.VDW>
-19.4848

>  <SCORE.INTER.norm>
-0.360179

>  <SCORE.INTRA>
-1.96565

>  <SCORE.INTRA.DIHEDRAL>
-7.51142

>  <SCORE.INTRA.DIHEDRAL.0>
13.9704

>  <SCORE.INTRA.POLAR>
0

>  <SCORE.INTRA.POLAR.0>
0

>  <SCORE.INTRA.REPUL>
0

>  <SCORE.INTRA.REPUL.0>
0

>  <SCORE.INTRA.SOLV>
3.76871

>  <SCORE.INTRA.SOLV.lig_0>
-70.9758

>  <SCORE.INTRA.VDW>
-0.0942893

>  <SCORE.INTRA.VDW.0>
-2.70686

>  <SCORE.INTRA.norm>
-0.0728017

>  <SCORE.RESTR>
0

>  <SCORE.RESTR.CAVITY>
0

>  <SCORE.RESTR.norm>
0

>  <SCORE.SYSTEM>
0

>  <SCORE.SYSTEM.CONST>
0

>  <SCORE.SYSTEM.DIHEDRAL>
0

>  <SCORE.SYSTEM.SOLV>
0

>  <SCORE.SYSTEM.norm>
0

>  <SCORE.heavy>
27

>  <SCORE.norm>
-0.432981

>  <RMSD>
6.144

$$$$
ligand
 OpenBabel11021811483D
libRbt.so/2013.1/901 2013/11/27
 27 29  0  0  0  0  0  0  0  0999 V2000
   47.0887   55.3205   34.4696 N   0  0  0  0  0  0  0  0  0  0  0  0
   45.6632   55.0832   34.2537 C   0  0  2  0  0  0  0  0  0  0  0  0
   44.9891   54.2851   35.3716 C   0  0  0  0  0  0  0  0  0  0  0  0
   44.1101   54.7937   35.9844 O   0  0  0  0  0  0  0  0  0  0  0  0
   45.3035   54.5669   32.8447 C   0  0  0  0  0  0  0  0  0  0  0  0
   45.4877   55.5034   31.6182 C   0  0  0  0  0  0  0  0  0  0  0  0
   44.5248   56.7185   31.5477 C   0  0  2  0  0  0  0  0  0  0  0  0
   44.4218   57.2861   30.2034 N   0  0  0  0  0  0  0  0  0  0  0  0
   44.8422   57.7855   32.6405 C   0  0  0  0  0  0  0  0  0  0  0  0
   46.1647   58.6146   32.5143 C   0  0  1  0  0  0  0  0  0  0  0  0
   47.4399   57.9105   32.4416 O   0  0  0  0  0  0  0  0  0  0  0  0
   46.2311   59.6592   31.3653 C   0  0  1  0  0  0  0  0  0  0  0  0
   45.3525   60.7898   31.4370 O   0  0  0  0  0  0  0  0  0  0  0  0
   47.7528   59.8915   31.1116 C   0  0  1  0  0  0  0  0  0  0  0  0
   48.3039   61.1315   31.4854 O   0  0  0  0  0  0  0  0  0  0  0  0
   48.3858   58.6067   31.6553 C   0  0  2  0  0  0  0  0  0  0  0  0
   45.0675   52.8786   35.3329 O   0  0  0  0  0  0  0  0  0  0  0  0
   48.3174   57.4043   26.3603 N   0  0  0  0  0  0  0  0  0  0  0  0
   47.5754   58.3915   27.0188 C   0  0  0  0  0  0  0  0  0  0  0  0
   47.7211   58.5763   28.4609 N   0  0  0  0  0  0  0  0  0  0  0  0
   48.5848   57.7856   29.1709 C   0  0  0  0  0  0  0  0  0  0  0  0
   49.3263   56.7931   28.5007 C   0  0  0  0  0  0  0  0  0  0  0  0
   49.1800   56.6091   27.0637 C   0  0  0  0  0  0  0  0  0  0  0  0
   49.9503   55.5792   26.3655 N   0  0  0  0  0  0  0  0  0  0  0  0
   50.1449   56.1148   29.4758 N   0  0  0  0  0  0  0  0  0  0  0  0
   49.8897   56.7030   30.7369 C   0  0  0  0  0  0  0  0  0  0  0  0
   48.9280   57.7407   30.5686 N   0  0  0  0  0  0  0  0  0  0  0  0
  2  1  1  1  0  0  0
  2  3  1  0  0  0  0
  2  5  1  0  0  0  0
  3  4  1  0  0  0  0
  3 17  1  0  0  0  0
  5  6  1  0  0  0  0
  7  6  1  6  0  0  0
  7  8  1  0  0  0  0
  7  9  1  0  0  0  0
 10  9  1  6  0  0  0
 10 11  1  0  0  0  0
 10 12  1  0  0  0  0
 11 16  1  0  0  0  0
 12 13  1  1  0  0  0
 12 14  1  0  0  0  0
 14 15  1  1  0  0  0
 14 16  1  0  0  0  0
 16 27  1  6  0  0  0
 18 19  2  0  0  0  0
 18 23  1  0  0  0  0
 19 20  1  0  0  0  0
 20 21  2  0  0  0  0
 21 22  1  0  0  0  0
 21 27  1  0  0  0  0
 22 23  2  0  0  0  0
 22 25  1  0  0  0  0
 23 24  1  0  0  0  0
 25 26  2  0  0  0  0
 26 27  1  0  0  0  0
M  END
>  <CHROM.1>
118.44209623,-67.60487451,-68.37214203,-160.40208105,69.41848968,-56.84872717
103.80446884,47.00296126,57.12899316,31.21451845,-2.60586666,0.98904104,-0.20193045

>  <Name>
ligand

>  <RI>
0

>  <Rbt.Current_Directory>
/home/itssahil/PROJECTS/Mol_Feturizer/New_Systems/rnas/3GX2

>  <Rbt.Executable>
rbdock ($Id: //depot/dev/client3/rdock/2013.1/src/exe/rbdock.cxx#4 $)

>  <Rbt.Library>
libRbt.so (2013.1, Build901 2013/11/27)

>  <Rbt.Parameter_File>
/export/apps/rDock/src/rDock_2013.1_src/data/scripts/dock_solv.prm

>  <Rbt.Receptor>
prm/pocket_docking_8.prm

>  <SCORE>
-13.4704

>  <SCORE.INTER>
-11.0044

>  <SCORE.INTER.CONST>
1

>  <SCORE.INTER.POLAR>
0

>  <SCORE.INTER.ROT>
7

>  <SCORE.INTER.SOLV>
15.872

>  <SCORE.INTER.VDW>
-20.8936

>  <SCORE.INTER.norm>
-0.407569

>  <SCORE.INTRA>
-2.46607

>  <SCORE.INTRA.DIHEDRAL>
-7.0592

>  <SCORE.INTRA.DIHEDRAL.0>
13.9704

>  <SCORE.INTRA.POLAR>
0

>  <SCORE.INTRA.POLAR.0>
0

>  <SCORE.INTRA.REPUL>
0

>  <SCORE.INTRA.REPUL.0>
0

>  <SCORE.INTRA.SOLV>
4.07645

>  <SCORE.INTRA.SOLV.lig_0>
-70.9758

>  <SCORE.INTRA.VDW>
-0.974697

>  <SCORE.INTRA.VDW.0>
-2.70686

>  <SCORE.INTRA.norm>
-0.0913359

>  <SCORE.RESTR>
0

>  <SCORE.RESTR.CAVITY>
0

>  <SCORE.RESTR.norm>
0

>  <SCORE.SYSTEM>
0

>  <SCORE.SYSTEM.CONST>
0

>  <SCORE.SYSTEM.DIHEDRAL>
0

>  <SCORE.SYSTEM.SOLV>
0

>  <SCORE.SYSTEM.norm>
0

>  <SCORE.heavy>
27

>  <SCORE.norm>
-0.498905

>  <RMSD>
6.157

$$$$
ligand
 OpenBabel11021811473D
libRbt.so/2013.1/901 2013/11/27
 27 29  0  0  0  0  0  0  0  0999 V2000
   47.0520   58.5805   28.5901 N   0  0  0  0  0  0  0  0  0  0  0  0
   48.4477   58.2507   28.8697 C   0  0  2  0  0  0  0  0  0  0  0  0
   49.0412   57.2041   27.9245 C   0  0  0  0  0  0  0  0  0  0  0  0
   48.7665   57.2564   26.7718 O   0  0  0  0  0  0  0  0  0  0  0  0
   48.7558   57.9641   30.3544 C   0  0  0  0  0  0  0  0  0  0  0  0
   48.3419   59.0021   31.4344 C   0  0  0  0  0  0  0  0  0  0  0  0
   48.5643   58.5668   32.9073 C   0  0  2  0  0  0  0  0  0  0  0  0
   49.9785   58.4146   33.2487 N   0  0  0  0  0  0  0  0  0  0  0  0
   47.7044   57.3229   33.2900 C   0  0  0  0  0  0  0  0  0  0  0  0
   48.4388   55.9834   33.6347 C   0  0  1  0  0  0  0  0  0  0  0  0
   48.7890   55.7026   35.0224 O   0  0  0  0  0  0  0  0  0  0  0  0
   47.7795   54.6708   33.1265 C   0  0  1  0  0  0  0  0  0  0  0  0
   47.7279   54.4525   31.7106 O   0  0  0  0  0  0  0  0  0  0  0  0
   48.3416   53.5468   34.0510 C   0  0  1  0  0  0  0  0  0  0  0  0
   49.2442   52.6218   33.4936 O   0  0  0  0  0  0  0  0  0  0  0  0
   48.7554   54.3187   35.3079 C   0  0  2  0  0  0  0  0  0  0  0  0
   50.2223   56.5415   28.3138 O   0  0  0  0  0  0  0  0  0  0  0  0
   48.1705   54.4113   40.7057 N   0  0  0  0  0  0  0  0  0  0  0  0
   49.2839   54.8204   39.9628 C   0  0  0  0  0  0  0  0  0  0  0  0
   49.2665   54.7231   38.5050 N   0  0  0  0  0  0  0  0  0  0  0  0
   48.1609   54.2335   37.8623 C   0  0  0  0  0  0  0  0  0  0  0  0
   47.0454   53.8222   38.6176 C   0  0  0  0  0  0  0  0  0  0  0  0
   47.0637   53.9187   40.0705 C   0  0  0  0  0  0  0  0  0  0  0  0
   45.9053   53.4929   40.8568 N   0  0  0  0  0  0  0  0  0  0  0  0
   46.0354   53.3534   37.7005 N   0  0  0  0  0  0  0  0  0  0  0  0
   46.5506   53.4824   36.3892 C   0  0  0  0  0  0  0  0  0  0  0  0
   47.8647   54.0274   36.4683 N   0  0  0  0  0  0  0  0  0  0  0  0
  2  1  1  1  0  0  0
  2  3  1  0  0  0  0
  2  5  1  0  0  0  0
  3  4  1  0  0  0  0
  3 17  1  0  0  0  0
  5  6  1  0  0  0  0
  7  6  1  6  0  0  0
  7  8  1  0  0  0  0
  7  9  1  0  0  0  0
 10  9  1  1  0  0  0
 10 11  1  0  0  0  0
 10 12  1  0  0  0  0
 11 16  1  0  0  0  0
 12 13  1  6  0  0  0
 12 14  1  0  0  0  0
 14 15  1  6  0  0  0
 14 16  1  0  0  0  0
 16 27  1  1  0  0  0
 18 19  2  0  0  0  0
 18 23  1  0  0  0  0
 19 20  1  0  0  0  0
 20 21  2  0  0  0  0
 21 22  1  0  0  0  0
 21 27  1  0  0  0  0
 22 23  2  0  0  0  0
 22 25  1  0  0  0  0
 23 24  1  0  0  0  0
 25 26  2  0  0  0  0
 26 27  1  0  0  0  0
M  END
>  <CHROM.1>
40.14798342,-52.96156301,174.16059126,66.28586931,114.36977182,91.65470955
-76.95430984,48.22661997,55.60596149,34.10130481,-0.81133133,1.41317711,1.16731526

>  <Name>
ligand

>  <RI>
0

>  <Rbt.Current_Directory>
/home/itssahil/PROJECTS/Mol_Feturizer/New_Systems/rnas/3GX2

>  <Rbt.Executable>
rbdock ($Id: //depot/dev/client3/rdock/2013.1/src/exe/rbdock.cxx#4 $)

>  <Rbt.Library>
libRbt.so (2013.1, Build901 2013/11/27)

>  <Rbt.Parameter_File>
/export/apps/rDock/src/rDock_2013.1_src/data/scripts/dock_solv.prm

>  <Rbt.Receptor>
prm/pocket_docking_7.prm

>  <SCORE>
-11.2801

>  <SCORE.INTER>
-13.0578

>  <SCORE.INTER.CONST>
1

>  <SCORE.INTER.POLAR>
0

>  <SCORE.INTER.ROT>
7

>  <SCORE.INTER.SOLV>
16.2453

>  <SCORE.INTER.VDW>
-22.387

>  <SCORE.INTER.norm>
-0.483624

>  <SCORE.INTRA>
1.60884

>  <SCORE.INTRA.DIHEDRAL>
-0.317025

>  <SCORE.INTRA.DIHEDRAL.0>
13.9704

>  <SCORE.INTRA.POLAR>
0

>  <SCORE.INTRA.POLAR.0>
0

>  <SCORE.INTRA.REPUL>
0

>  <SCORE.INTRA.REPUL.0>
0

>  <SCORE.INTRA.SOLV>
1.42089

>  <SCORE.INTRA.SOLV.lig_0>
-70.9758

>  <SCORE.INTRA.VDW>
1.05691

>  <SCORE.INTRA.VDW.0>
-2.70686

>  <SCORE.INTRA.norm>
0.0595867

>  <SCORE.RESTR>
0.168883

>  <SCORE.RESTR.CAVITY>
0.168883

>  <SCORE.RESTR.norm>
0.00625494

>  <SCORE.SYSTEM>
0

>  <SCORE.SYSTEM.CONST>
0

>  <SCORE.SYSTEM.DIHEDRAL>
0

>  <SCORE.SYSTEM.SOLV>
0

>  <SCORE.SYSTEM.norm>
0

>  <SCORE.heavy>
27

>  <SCORE.norm>
-0.417782

>  <RMSD>
6.168

$$$$
ligand
 OpenBabel11021811473D
libRbt.so/2013.1/901 2013/11/27
 27 29  0  0  0  0  0  0  0  0999 V2000
   49.5524   55.6632   30.0176 N   0  0  0  0  0  0  0  0  0  0  0  0
   48.3438   56.3533   30.4628 C   0  0  2  0  0  0  0  0  0  0  0  0
   47.0685   55.8956   29.7520 C   0  0  0  0  0  0  0  0  0  0  0  0
   47.1192   55.6498   28.5927 O   0  0  0  0  0  0  0  0  0  0  0  0
   48.4716   57.8891   30.5396 C   0  0  0  0  0  0  0  0  0  0  0  0
   49.4967   58.5220   31.5213 C   0  0  0  0  0  0  0  0  0  0  0  0
   49.0464   58.6057   33.0041 C   0  0  2  0  0  0  0  0  0  0  0  0
   49.8881   59.4941   33.8055 N   0  0  0  0  0  0  0  0  0  0  0  0
   48.8613   57.1952   33.6439 C   0  0  0  0  0  0  0  0  0  0  0  0
   47.5504   56.3979   33.3305 C   0  0  1  0  0  0  0  0  0  0  0  0
   47.3621   55.0795   33.9249 O   0  0  0  0  0  0  0  0  0  0  0  0
   46.2046   57.1338   33.5818 C   0  0  1  0  0  0  0  0  0  0  0  0
   45.8942   58.2624   32.7541 O   0  0  0  0  0  0  0  0  0  0  0  0
   45.1456   56.0011   33.7544 C   0  0  1  0  0  0  0  0  0  0  0  0
   44.1903   55.8280   32.7355 O   0  0  0  0  0  0  0  0  0  0  0  0
   45.9996   54.8023   34.1791 C   0  0  2  0  0  0  0  0  0  0  0  0
   46.0379   55.3245   30.5249 O   0  0  0  0  0  0  0  0  0  0  0  0
   48.2950   53.5185   38.9299 N   0  0  0  0  0  0  0  0  0  0  0  0
   48.9417   53.8261   37.7275 C   0  0  0  0  0  0  0  0  0  0  0  0
   48.1582   54.1500   36.5374 N   0  0  0  0  0  0  0  0  0  0  0  0
   46.7901   54.1551   36.5962 C   0  0  0  0  0  0  0  0  0  0  0  0
   46.1471   53.8426   37.8098 C   0  0  0  0  0  0  0  0  0  0  0  0
   46.9286   53.5191   38.9952 C   0  0  0  0  0  0  0  0  0  0  0  0
   46.2625   53.1951   40.2572 N   0  0  0  0  0  0  0  0  0  0  0  0
   44.7233   53.9201   37.5919 N   0  0  0  0  0  0  0  0  0  0  0  0
   44.5131   54.2784   36.2395 C   0  0  0  0  0  0  0  0  0  0  0  0
   45.7806   54.4304   35.6069 N   0  0  0  0  0  0  0  0  0  0  0  0
  2  1  1  6  0  0  0
  2  3  1  0  0  0  0
  2  5  1  0  0  0  0
  3  4  1  0  0  0  0
  3 17  1  0  0  0  0
  5  6  1  0  0  0  0
  7  6  1  6  0  0  0
  7  8  1  0  0  0  0
  7  9  1  0  0  0  0
 10  9  1  1  0  0  0
 10 11  1  0  0  0  0
 10 12  1  0  0  0  0
 11 16  1  0  0  0  0
 12 13  1  6  0  0  0
 12 14  1  0  0  0  0
 14 15  1  6  0  0  0
 14 16  1  0  0  0  0
 16 27  1  1  0  0  0
 18 19  2  0  0  0  0
 18 23  1  0  0  0  0
 19 20  1  0  0  0  0
 20 21  2  0  0  0  0
 21 22  1  0  0  0  0
 21 27  1  0  0  0  0
 22 23  2  0  0  0  0
 22 25  1  0  0  0  0
 23 24  1  0  0  0  0
 25 26  2  0  0  0  0
 26 27  1  0  0  0  0
M  END
>  <CHROM.1>
-38.59031823,-62.49761005,-80.01150219,-165.66065917,-78.93931703,-179.82498806
-9.76376908,47.12711455,55.70634221,34.03778885,-1.38350968,0.52292094,1.88952659

>  <Name>
ligand

>  <RI>
0

>  <Rbt.Current_Directory>
/home/itssahil/PROJECTS/Mol_Feturizer/New_Systems/rnas/3GX2

>  <Rbt.Executable>
rbdock ($Id: //depot/dev/client3/rdock/2013.1/src/exe/rbdock.cxx#4 $)

>  <Rbt.Library>
libRbt.so (2013.1, Build901 2013/11/27)

>  <Rbt.Parameter_File>
/export/apps/rDock/src/rDock_2013.1_src/data/scripts/dock_solv.prm

>  <Rbt.Receptor>
prm/pocket_docking_7.prm

>  <SCORE>
-12.746

>  <SCORE.INTER>
-9.9836

>  <SCORE.INTER.CONST>
1

>  <SCORE.INTER.POLAR>
0

>  <SCORE.INTER.ROT>
7

>  <SCORE.INTER.SOLV>
14.9236

>  <SCORE.INTER.VDW>
-19.8969

>  <SCORE.INTER.norm>
-0.369763

>  <SCORE.INTRA>
-2.76238

>  <SCORE.INTRA.DIHEDRAL>
-6.18174

>  <SCORE.INTRA.DIHEDRAL.0>
13.9704

>  <SCORE.INTRA.POLAR>
0

>  <SCORE.INTRA.POLAR.0>
0

>  <SCORE.INTRA.REPUL>
0

>  <SCORE.INTRA.REPUL.0>
0

>  <SCORE.INTRA.SOLV>
2.79443

>  <SCORE.INTRA.SOLV.lig_0>
-70.9758

>  <SCORE.INTRA.VDW>
-1.06872

>  <SCORE.INTRA.VDW.0>
-2.70686

>  <SCORE.INTRA.norm>
-0.10231

>  <SCORE.RESTR>
0

>  <SCORE.RESTR.CAVITY>
0

>  <SCORE.RESTR.norm>
0

>  <SCORE.SYSTEM>
0

>  <SCORE.SYSTEM.CONST>
0

>  <SCORE.SYSTEM.DIHEDRAL>
0

>  <SCORE.SYSTEM.SOLV>
0

>  <SCORE.SYSTEM.norm>
0

>  <SCORE.heavy>
27

>  <SCORE.norm>
-0.472073

>  <RMSD>
6.185

$$$$
ligand
 OpenBabel11021811473D
libRbt.so/2013.1/901 2013/11/27
 27 29  0  0  0  0  0  0  0  0999 V2000
   48.8509   54.9857   35.8477 N   0  0  0  0  0  0  0  0  0  0  0  0
   48.9018   55.1005   34.3920 C   0  0  2  0  0  0  0  0  0  0  0  0
   49.7051   56.3024   33.8904 C   0  0  0  0  0  0  0  0  0  0  0  0
   50.5522   56.1233   33.0797 O   0  0  0  0  0  0  0  0  0  0  0  0
   47.5372   54.9525   33.6871 C   0  0  0  0  0  0  0  0  0  0  0  0
   46.4272   56.0098   33.9422 C   0  0  0  0  0  0  0  0  0  0  0  0
   45.0110   55.6372   33.4284 C   0  0  2  0  0  0  0  0  0  0  0  0
   44.4806   54.4240   34.0501 N   0  0  0  0  0  0  0  0  0  0  0  0
   44.9383   55.6091   31.8704 C   0  0  0  0  0  0  0  0  0  0  0  0
   45.2953   56.9138   31.0814 C   0  0  1  0  0  0  0  0  0  0  0  0
   46.6811   57.3673   31.0493 O   0  0  0  0  0  0  0  0  0  0  0  0
   44.8270   56.9890   29.6012 C   0  0  1  0  0  0  0  0  0  0  0  0
   43.4171   57.0421   29.3472 O   0  0  0  0  0  0  0  0  0  0  0  0
   45.7626   58.0414   28.9296 C   0  0  1  0  0  0  0  0  0  0  0  0
   45.2061   59.2799   28.5589 O   0  0  0  0  0  0  0  0  0  0  0  0
   46.9951   58.0269   29.8392 C   0  0  2  0  0  0  0  0  0  0  0  0
   49.1361   57.5861   34.0090 O   0  0  0  0  0  0  0  0  0  0  0  0
   50.7051   54.0641   29.9772 N   0  0  0  0  0  0  0  0  0  0  0  0
   49.6721   54.2955   30.8928 C   0  0  0  0  0  0  0  0  0  0  0  0
   48.7592   55.4195   30.6970 N   0  0  0  0  0  0  0  0  0  0  0  0
   48.9110   56.2476   29.6170 C   0  0  0  0  0  0  0  0  0  0  0  0
   49.9543   56.0087   28.7014 C   0  0  0  0  0  0  0  0  0  0  0  0
   50.8642   54.8888   28.8976 C   0  0  0  0  0  0  0  0  0  0  0  0
   51.9482   54.6385   27.9469 N   0  0  0  0  0  0  0  0  0  0  0  0
   49.8851   57.0192   27.6743 N   0  0  0  0  0  0  0  0  0  0  0  0
   48.7957   57.8691   27.9785 C   0  0  0  0  0  0  0  0  0  0  0  0
   48.1787   57.4066   29.1766 N   0  0  0  0  0  0  0  0  0  0  0  0
  2  1  1  1  0  0  0
  2  3  1  0  0  0  0
  2  5  1  0  0  0  0
  3  4  1  0  0  0  0
  3 17  1  0  0  0  0
  5  6  1  0  0  0  0
  7  6  1  6  0  0  0
  7  8  1  0  0  0  0
  7  9  1  0  0  0  0
 10  9  1  6  0  0  0
 10 11  1  0  0  0  0
 10 12  1  0  0  0  0
 11 16  1  0  0  0  0
 12 13  1  1  0  0  0
 12 14  1  0  0  0  0
 14 15  1  1  0  0  0
 14 16  1  0  0  0  0
 16 27  1  6  0  0  0
 18 19  2  0  0  0  0
 18 23  1  0  0  0  0
 19 20  1  0  0  0  0
 20 21  2  0  0  0  0
 21 22  1  0  0  0  0
 21 27  1  0  0  0  0
 22 23  2  0  0  0  0
 22 25  1  0  0  0  0
 23 24  1  0  0  0  0
 25 26  2  0  0  0  0
 26 27  1  0  0  0  0
M  END
>  <CHROM.1>
128.48835317,64.58359209,-168.19713484,60.82930498,-58.79930637,70.17055537
3.04153259,47.78047672,56.26571286,31.08667405,-2.00800932,0.28326869,-1.28353714

>  <Name>
ligand

>  <RI>
0

>  <Rbt.Current_Directory>
/home/itssahil/PROJECTS/Mol_Feturizer/New_Systems/rnas/3GX2

>  <Rbt.Executable>
rbdock ($Id: //depot/dev/client3/rdock/2013.1/src/exe/rbdock.cxx#4 $)

>  <Rbt.Library>
libRbt.so (2013.1, Build901 2013/11/27)

>  <Rbt.Parameter_File>
/export/apps/rDock/src/rDock_2013.1_src/data/scripts/dock_solv.prm

>  <Rbt.Receptor>
prm/pocket_docking_6.prm

>  <SCORE>
-9.62395

>  <SCORE.INTER>
-4.55369

>  <SCORE.INTER.CONST>
1

>  <SCORE.INTER.POLAR>
0

>  <SCORE.INTER.ROT>
7

>  <SCORE.INTER.SOLV>
19.0873

>  <SCORE.INTER.VDW>
-17.6649

>  <SCORE.INTER.norm>
-0.168655

>  <SCORE.INTRA>
-5.07026

>  <SCORE.INTRA.DIHEDRAL>
-8.05864

>  <SCORE.INTRA.DIHEDRAL.0>
13.9704

>  <SCORE.INTRA.POLAR>
0

>  <SCORE.INTRA.POLAR.0>
0

>  <SCORE.INTRA.REPUL>
0

>  <SCORE.INTRA.REPUL.0>
0

>  <SCORE.INTRA.SOLV>
0.619622

>  <SCORE.INTRA.SOLV.lig_0>
-70.9758

>  <SCORE.INTRA.VDW>
-1.35075

>  <SCORE.INTRA.VDW.0>
-2.70686

>  <SCORE.INTRA.norm>
-0.187787

>  <SCORE.RESTR>
0

>  <SCORE.RESTR.CAVITY>
0

>  <SCORE.RESTR.norm>
0

>  <SCORE.SYSTEM>
0

>  <SCORE.SYSTEM.CONST>
0

>  <SCORE.SYSTEM.DIHEDRAL>
0

>  <SCORE.SYSTEM.SOLV>
0

>  <SCORE.SYSTEM.norm>
0

>  <SCORE.heavy>
27

>  <SCORE.norm>
-0.356443

>  <RMSD>
6.206

$$$$
ligand
 OpenBabel11021811473D
libRbt.so/2013.1/901 2013/11/27
 27 29  0  0  0  0  0  0  0  0999 V2000
   48.7336   54.9223   35.4130 N   0  0  0  0  0  0  0  0  0  0  0  0
   47.3060   54.7640   35.1448 C   0  0  2  0  0  0  0  0  0  0  0  0
   46.8375   53.3078   35.1080 C   0  0  0  0  0  0  0  0  0  0  0  0
   47.6478   52.4462   35.1968 O   0  0  0  0  0  0  0  0  0  0  0  0
   46.7788   55.5957   33.9567 C   0  0  0  0  0  0  0  0  0  0  0  0
   45.2467   55.7019   33.7189 C   0  0  0  0  0  0  0  0  0  0  0  0
   44.8137   56.5116   32.4678 C   0  0  2  0  0  0  0  0  0  0  0  0
   45.4807   56.0681   31.2437 N   0  0  0  0  0  0  0  0  0  0  0  0
   44.9162   58.0510   32.6980 C   0  0  0  0  0  0  0  0  0  0  0  0
   46.3162   58.7374   32.5517 C   0  0  1  0  0  0  0  0  0  0  0  0
   47.5138   57.9060   32.5126 O   0  0  0  0  0  0  0  0  0  0  0  0
   46.4915   59.7283   31.3671 C   0  0  1  0  0  0  0  0  0  0  0  0
   45.7314   60.9435   31.3930 O   0  0  0  0  0  0  0  0  0  0  0  0
   48.0297   59.7966   31.1158 C   0  0  1  0  0  0  0  0  0  0  0  0
   48.7021   60.9872   31.4494 O   0  0  0  0  0  0  0  0  0  0  0  0
   48.5278   58.4747   31.7086 C   0  0  2  0  0  0  0  0  0  0  0  0
   45.5011   53.0243   35.4533 O   0  0  0  0  0  0  0  0  0  0  0  0
   48.4587   57.1693   26.4381 N   0  0  0  0  0  0  0  0  0  0  0  0
   47.8340   58.2603   27.0532 C   0  0  0  0  0  0  0  0  0  0  0  0
   47.9599   58.4577   28.4955 N   0  0  0  0  0  0  0  0  0  0  0  0
   48.6905   57.5773   29.2482 C   0  0  0  0  0  0  0  0  0  0  0  0
   49.3143   56.4809   28.6214 C   0  0  0  0  0  0  0  0  0  0  0  0
   49.1878   56.2844   27.1841 C   0  0  0  0  0  0  0  0  0  0  0  0
   49.8360   55.1465   26.5311 N   0  0  0  0  0  0  0  0  0  0  0  0
   50.0072   55.7239   29.6353 N   0  0  0  0  0  0  0  0  0  0  0  0
   49.7944   56.3695   30.8760 C   0  0  0  0  0  0  0  0  0  0  0  0
   48.9832   57.5201   30.6569 N   0  0  0  0  0  0  0  0  0  0  0  0
  2  1  1  6  0  0  0
  2  3  1  0  0  0  0
  2  5  1  0  0  0  0
  3  4  1  0  0  0  0
  3 17  1  0  0  0  0
  5  6  1  0  0  0  0
  7  6  1  1  0  0  0
  7  8  1  0  0  0  0
  7  9  1  0  0  0  0
 10  9  1  6  0  0  0
 10 11  1  0  0  0  0
 10 12  1  0  0  0  0
 11 16  1  0  0  0  0
 12 13  1  1  0  0  0
 12 14  1  0  0  0  0
 14 15  1  1  0  0  0
 14 16  1  0  0  0  0
 16 27  1  6  0  0  0
 18 19  2  0  0  0  0
 18 23  1  0  0  0  0
 19 20  1  0  0  0  0
 20 21  2  0  0  0  0
 21 22  1  0  0  0  0
 21 27  1  0  0  0  0
 22 23  2  0  0  0  0
 22 25  1  0  0  0  0
 23 24  1  0  0  0  0
 25 26  2  0  0  0  0
 26 27  1  0  0  0  0
M  END
>  <CHROM.1>
-5.31961154,-169.76676422,-177.62512522,51.97635011,81.10578446,-13.91689773
106.25257747,47.53930580,56.88072530,31.47713605,-2.11977035,1.04139100,-0.57482610

>  <Name>
ligand

>  <RI>
0

>  <Rbt.Current_Directory>
/home/itssahil/PROJECTS/Mol_Feturizer/New_Systems/rnas/3GX2

>  <Rbt.Executable>
rbdock ($Id: //depot/dev/client3/rdock/2013.1/src/exe/rbdock.cxx#4 $)

>  <Rbt.Library>
libRbt.so (2013.1, Build901 2013/11/27)

>  <Rbt.Parameter_File>
/export/apps/rDock/src/rDock_2013.1_src/data/scripts/dock_solv.prm

>  <Rbt.Receptor>
prm/pocket_docking_3.prm

>  <SCORE>
-12.5732

>  <SCORE.INTER>
-12.913

>  <SCORE.INTER.CONST>
1

>  <SCORE.INTER.POLAR>
0

>  <SCORE.INTER.ROT>
7

>  <SCORE.INTER.SOLV>
13.3743

>  <SCORE.INTER.VDW>
-21.3334

>  <SCORE.INTER.norm>
-0.478258

>  <SCORE.INTRA>
0.339784

>  <SCORE.INTRA.DIHEDRAL>
-2.19913

>  <SCORE.INTRA.DIHEDRAL.0>
13.9704

>  <SCORE.INTRA.POLAR>
0

>  <SCORE.INTRA.POLAR.0>
0

>  <SCORE.INTRA.REPUL>
0

>  <SCORE.INTRA.REPUL.0>
0

>  <SCORE.INTRA.SOLV>
2.53821

>  <SCORE.INTRA.SOLV.lig_0>
-70.9758

>  <SCORE.INTRA.VDW>
0.170243

>  <SCORE.INTRA.VDW.0>
-2.70686

>  <SCORE.INTRA.norm>
0.0125846

>  <SCORE.RESTR>
0

>  <SCORE.RESTR.CAVITY>
0

>  <SCORE.RESTR.norm>
0

>  <SCORE.SYSTEM>
0

>  <SCORE.SYSTEM.CONST>
0

>  <SCORE.SYSTEM.DIHEDRAL>
0

>  <SCORE.SYSTEM.SOLV>
0

>  <SCORE.SYSTEM.norm>
0

>  <SCORE.heavy>
27

>  <SCORE.norm>
-0.465673

>  <RMSD>
6.221

$$$$
ligand
 OpenBabel11021811473D
libRbt.so/2013.1/901 2013/11/27
 27 29  0  0  0  0  0  0  0  0999 V2000
   46.1620   53.6946   36.4272 N   0  0  0  0  0  0  0  0  0  0  0  0
   46.6220   53.4479   35.0624 C   0  0  2  0  0  0  0  0  0  0  0  0
   48.1308   53.6191   34.8739 C   0  0  0  0  0  0  0  0  0  0  0  0
   48.7898   53.9332   35.8087 O   0  0  0  0  0  0  0  0  0  0  0  0
   45.7950   54.1539   33.9676 C   0  0  0  0  0  0  0  0  0  0  0  0
   45.8387   55.7034   33.8574 C   0  0  0  0  0  0  0  0  0  0  0  0
   45.0023   56.3208   32.7052 C   0  0  2  0  0  0  0  0  0  0  0  0
   45.3751   55.8014   31.3894 N   0  0  0  0  0  0  0  0  0  0  0  0
   44.9787   57.8794   32.7642 C   0  0  0  0  0  0  0  0  0  0  0  0
   46.3277   58.6550   32.5882 C   0  0  1  0  0  0  0  0  0  0  0  0
   47.5703   57.9004   32.4708 O   0  0  0  0  0  0  0  0  0  0  0  0
   46.3938   59.6952   31.4352 C   0  0  1  0  0  0  0  0  0  0  0  0
   45.5641   60.8600   31.5364 O   0  0  0  0  0  0  0  0  0  0  0  0
   47.9133   59.8664   31.1259 C   0  0  1  0  0  0  0  0  0  0  0  0
   48.5266   61.0836   31.4766 O   0  0  0  0  0  0  0  0  0  0  0  0
   48.5139   58.5578   31.6490 C   0  0  2  0  0  0  0  0  0  0  0  0
   48.7510   52.9594   33.7942 O   0  0  0  0  0  0  0  0  0  0  0  0
   48.2268   57.3731   26.3574 N   0  0  0  0  0  0  0  0  0  0  0  0
   47.5525   58.3925   27.0394 C   0  0  0  0  0  0  0  0  0  0  0  0
   47.7509   58.5665   28.4766 N   0  0  0  0  0  0  0  0  0  0  0  0
   48.5978   57.7344   29.1589 C   0  0  0  0  0  0  0  0  0  0  0  0
   49.2710   56.7099   28.4651 C   0  0  0  0  0  0  0  0  0  0  0  0
   49.0722   56.5365   27.0330 C   0  0  0  0  0  0  0  0  0  0  0  0
   49.7715   55.4734   26.3104 N   0  0  0  0  0  0  0  0  0  0  0  0
   50.0864   55.9915   29.4138 N   0  0  0  0  0  0  0  0  0  0  0  0
   49.8979   56.5878   30.6828 C   0  0  0  0  0  0  0  0  0  0  0  0
   48.9813   57.6699   30.5453 N   0  0  0  0  0  0  0  0  0  0  0  0
  2  1  1  1  0  0  0
  2  3  1  0  0  0  0
  2  5  1  0  0  0  0
  3  4  1  0  0  0  0
  3 17  1  0  0  0  0
  5  6  1  0  0  0  0
  7  6  1  1  0  0  0
  7  8  1  0  0  0  0
  7  9  1  0  0  0  0
 10  9  1  6  0  0  0
 10 11  1  0  0  0  0
 10 12  1  0  0  0  0
 11 16  1  0  0  0  0
 12 13  1  1  0  0  0
 12 14  1  0  0  0  0
 14 15  1  1  0  0  0
 14 16  1  0  0  0  0
 16 27  1  6  0  0  0
 18 19  2  0  0  0  0
 18 23  1  0  0  0  0
 19 20  1  0  0  0  0
 20 21  2  0  0  0  0
 21 22  1  0  0  0  0
 21 27  1  0  0  0  0
 22 23  2  0  0  0  0
 22 25  1  0  0  0  0
 23 24  1  0  0  0  0
 25 26  2  0  0  0  0
 26 27  1  0  0  0  0
M  END
>  <CHROM.1>
-0.36521903,67.88278239,178.57622785,-56.98890917,63.41309041,-4.31131139
104.35648820,47.59313074,56.85629773,31.44444709,-1.95416226,1.01316351,-0.70671542

>  <Name>
ligand

>  <RI>
0

>  <Rbt.Current_Directory>
/home/itssahil/PROJECTS/Mol_Feturizer/New_Systems/rnas/3GX2

>  <Rbt.Executable>
rbdock ($Id: //depot/dev/client3/rdock/2013.1/src/exe/rbdock.cxx#4 $)

>  <Rbt.Library>
libRbt.so (2013.1, Build901 2013/11/27)

>  <Rbt.Parameter_File>
/export/apps/rDock/src/rDock_2013.1_src/data/scripts/dock_solv.prm

>  <Rbt.Receptor>
prm/pocket_docking_6.prm

>  <SCORE>
-14.3175

>  <SCORE.INTER>
-13.7384

>  <SCORE.INTER.CONST>
1

>  <SCORE.INTER.POLAR>
0

>  <SCORE.INTER.ROT>
7

>  <SCORE.INTER.SOLV>
14.0797

>  <SCORE.INTER.VDW>
-22.1188

>  <SCORE.INTER.norm>
-0.508831

>  <SCORE.INTRA>
-0.579043

>  <SCORE.INTRA.DIHEDRAL>
-3.41673

>  <SCORE.INTRA.DIHEDRAL.0>
13.9704

>  <SCORE.INTRA.POLAR>
0

>  <SCORE.INTRA.POLAR.0>
0

>  <SCORE.INTRA.REPUL>
0

>  <SCORE.INTRA.REPUL.0>
0

>  <SCORE.INTRA.SOLV>
2.09526

>  <SCORE.INTRA.SOLV.lig_0>
-70.9758

>  <SCORE.INTRA.VDW>
0.0816966

>  <SCORE.INTRA.VDW.0>
-2.70686

>  <SCORE.INTRA.norm>
-0.021446

>  <SCORE.RESTR>
0

>  <SCORE.RESTR.CAVITY>
0

>  <SCORE.RESTR.norm>
0

>  <SCORE.SYSTEM>
0

>  <SCORE.SYSTEM.CONST>
0

>  <SCORE.SYSTEM.DIHEDRAL>
0

>  <SCORE.SYSTEM.SOLV>
0

>  <SCORE.SYSTEM.norm>
0

>  <SCORE.heavy>
27

>  <SCORE.norm>
-0.530277

>  <RMSD>
6.233

$$$$
ligand
 OpenBabel11021811483D
libRbt.so/2013.1/901 2013/11/27
 27 29  0  0  0  0  0  0  0  0999 V2000
   48.9864   54.3996   29.7191 N   0  0  0  0  0  0  0  0  0  0  0  0
   49.0980   55.8560   29.6807 C   0  0  2  0  0  0  0  0  0  0  0  0
   49.7915   56.3941   28.4275 C   0  0  0  0  0  0  0  0  0  0  0  0
   49.4406   57.4374   27.9855 O   0  0  0  0  0  0  0  0  0  0  0  0
   49.6264   56.4950   30.9821 C   0  0  0  0  0  0  0  0  0  0  0  0
   48.7700   56.4121   32.2762 C   0  0  0  0  0  0  0  0  0  0  0  0
   47.3357   56.9959   32.1734 C   0  0  2  0  0  0  0  0  0  0  0  0
   47.3209   58.4018   31.7696 N   0  0  0  0  0  0  0  0  0  0  0  0
   46.4935   56.7182   33.4566 C   0  0  0  0  0  0  0  0  0  0  0  0
   46.3632   55.2412   33.9607 C   0  0  1  0  0  0  0  0  0  0  0  0
   47.4979   54.6176   34.6321 O   0  0  0  0  0  0  0  0  0  0  0  0
   45.1457   54.9149   34.8701 C   0  0  1  0  0  0  0  0  0  0  0  0
   43.8373   54.9902   34.2891 O   0  0  0  0  0  0  0  0  0  0  0  0
   45.5568   53.6332   35.6589 C   0  0  1  0  0  0  0  0  0  0  0  0
   44.9049   52.4260   35.3452 O   0  0  0  0  0  0  0  0  0  0  0  0
   47.0871   53.6822   35.6089 C   0  0  2  0  0  0  0  0  0  0  0  0
   51.0857   55.9264   28.1239 O   0  0  0  0  0  0  0  0  0  0  0  0
   46.2266   54.2737   40.9377 N   0  0  0  0  0  0  0  0  0  0  0  0
   45.2860   53.9451   39.9548 C   0  0  0  0  0  0  0  0  0  0  0  0
   45.6983   53.8279   38.5579 N   0  0  0  0  0  0  0  0  0  0  0  0
   47.0054   54.0375   38.2075 C   0  0  0  0  0  0  0  0  0  0  0  0
   47.9452   54.3697   39.2027 C   0  0  0  0  0  0  0  0  0  0  0  0
   47.5334   54.4871   40.5946 C   0  0  0  0  0  0  0  0  0  0  0  0
   48.5085   54.8312   41.6301 N   0  0  0  0  0  0  0  0  0  0  0  0
   49.2287   54.5348   38.5654 N   0  0  0  0  0  0  0  0  0  0  0  0
   49.0554   54.3026   37.1806 C   0  0  0  0  0  0  0  0  0  0  0  0
   47.6861   53.9914   36.9395 N   0  0  0  0  0  0  0  0  0  0  0  0
  2  1  1  1  0  0  0
  2  3  1  0  0  0  0
  2  5  1  0  0  0  0
  3  4  1  0  0  0  0
  3 17  1  0  0  0  0
  5  6  1  0  0  0  0
  7  6  1  1  0  0  0
  7  8  1  0  0  0  0
  7  9  1  0  0  0  0
 10  9  1  1  0  0  0
 10 11  1  0  0  0  0
 10 12  1  0  0  0  0
 11 16  1  0  0  0  0
 12 13  1  6  0  0  0
 12 14  1  0  0  0  0
 14 15  1  6  0  0  0
 14 16  1  0  0  0  0
 16 27  1  1  0  0  0
 18 19  2  0  0  0  0
 18 23  1  0  0  0  0
 19 20  1  0  0  0  0
 20 21  2  0  0  0  0
 21 22  1  0  0  0  0
 21 27  1  0  0  0  0
 22 23  2  0  0  0  0
 22 25  1  0  0  0  0
 23 24  1  0  0  0  0
 25 26  2  0  0  0  0
 26 27  1  0  0  0  0
M  END
>  <CHROM.1>
146.55009519,-66.00897535,-56.77159934,-57.61308058,-53.88155448,75.07464050
132.89384771,47.50604130,55.09938846,34.69063834,1.33480327,-0.20937557,-1.38965649

>  <Name>
ligand

>  <RI>
0

>  <Rbt.Current_Directory>
/home/itssahil/PROJECTS/Mol_Feturizer/New_Systems/rnas/3GX2

>  <Rbt.Executable>
rbdock ($Id: //depot/dev/client3/rdock/2013.1/src/exe/rbdock.cxx#4 $)

>  <Rbt.Library>
libRbt.so (2013.1, Build901 2013/11/27)

>  <Rbt.Parameter_File>
/export/apps/rDock/src/rDock_2013.1_src/data/scripts/dock_solv.prm

>  <Rbt.Receptor>
prm/pocket_docking_8.prm

>  <SCORE>
-12.9487

>  <SCORE.INTER>
-10.0326

>  <SCORE.INTER.CONST>
1

>  <SCORE.INTER.POLAR>
0

>  <SCORE.INTER.ROT>
7

>  <SCORE.INTER.SOLV>
12.4805

>  <SCORE.INTER.VDW>
-19.1152

>  <SCORE.INTER.norm>
-0.371576

>  <SCORE.INTRA>
-2.91609

>  <SCORE.INTRA.DIHEDRAL>
-7.81741

>  <SCORE.INTRA.DIHEDRAL.0>
13.9704

>  <SCORE.INTRA.POLAR>
0

>  <SCORE.INTRA.POLAR.0>
0

>  <SCORE.INTRA.REPUL>
0

>  <SCORE.INTRA.REPUL.0>
0

>  <SCORE.INTRA.SOLV>
1.01309

>  <SCORE.INTRA.SOLV.lig_0>
-70.9758

>  <SCORE.INTRA.VDW>
0.486068

>  <SCORE.INTRA.VDW.0>
-2.70686

>  <SCORE.INTRA.norm>
-0.108003

>  <SCORE.RESTR>
0

>  <SCORE.RESTR.CAVITY>
0

>  <SCORE.RESTR.norm>
0

>  <SCORE.SYSTEM>
0

>  <SCORE.SYSTEM.CONST>
0

>  <SCORE.SYSTEM.DIHEDRAL>
0

>  <SCORE.SYSTEM.SOLV>
0

>  <SCORE.SYSTEM.norm>
0

>  <SCORE.heavy>
27

>  <SCORE.norm>
-0.47958

>  <RMSD>
6.241

$$$$
ligand
 OpenBabel11021811483D
libRbt.so/2013.1/901 2013/11/27
 27 29  0  0  0  0  0  0  0  0999 V2000
   45.3665   52.8763   27.2193 N   0  0  0  0  0  0  0  0  0  0  0  0
   45.8334   52.8348   28.6032 C   0  0  2  0  0  0  0  0  0  0  0  0
   45.3409   54.0020   29.4613 C   0  0  0  0  0  0  0  0  0  0  0  0
   45.0594   53.7967   30.5951 O   0  0  0  0  0  0  0  0  0  0  0  0
   47.3441   52.5650   28.7644 C   0  0  0  0  0  0  0  0  0  0  0  0
   47.9464   52.4210   30.1898 C   0  0  0  0  0  0  0  0  0  0  0  0
   48.4040   53.7416   30.8644 C   0  0  2  0  0  0  0  0  0  0  0  0
   49.5523   54.3540   30.1963 N   0  0  0  0  0  0  0  0  0  0  0  0
   48.6058   53.5780   32.4025 C   0  0  0  0  0  0  0  0  0  0  0  0
   47.3385   53.5068   33.3197 C   0  0  1  0  0  0  0  0  0  0  0  0
   47.4171   52.7844   34.5842 O   0  0  0  0  0  0  0  0  0  0  0  0
   46.6595   54.8566   33.6842 C   0  0  1  0  0  0  0  0  0  0  0  0
   46.0375   55.5996   32.6278 O   0  0  0  0  0  0  0  0  0  0  0  0
   45.8556   54.5699   34.9902 C   0  0  1  0  0  0  0  0  0  0  0  0
   44.4504   54.5528   34.9115 O   0  0  0  0  0  0  0  0  0  0  0  0
   46.5788   53.3508   35.5712 C   0  0  2  0  0  0  0  0  0  0  0  0
   45.6816   55.3123   29.0706 O   0  0  0  0  0  0  0  0  0  0  0  0
   46.3685   54.3576   40.9031 N   0  0  0  0  0  0  0  0  0  0  0  0
   45.2997   54.0588   40.0503 C   0  0  0  0  0  0  0  0  0  0  0  0
   45.5430   53.8147   38.6304 N   0  0  0  0  0  0  0  0  0  0  0  0
   46.8167   53.8759   38.1312 C   0  0  0  0  0  0  0  0  0  0  0  0
   47.8864   54.1791   38.9960 C   0  0  0  0  0  0  0  0  0  0  0  0
   47.6431   54.4230   40.4108 C   0  0  0  0  0  0  0  0  0  0  0  0
   48.7532   54.7372   41.3110 N   0  0  0  0  0  0  0  0  0  0  0  0
   49.1011   54.1802   38.2179 N   0  0  0  0  0  0  0  0  0  0  0  0
   48.7559   53.8785   36.8794 C   0  0  0  0  0  0  0  0  0  0  0  0
   47.3462   53.6848   36.8058 N   0  0  0  0  0  0  0  0  0  0  0  0
  2  1  1  6  0  0  0
  2  3  1  0  0  0  0
  2  5  1  0  0  0  0
  3  4  1  0  0  0  0
  3 17  1  0  0  0  0
  5  6  1  0  0  0  0
  7  6  1  6  0  0  0
  7  8  1  0  0  0  0
  7  9  1  0  0  0  0
 10  9  1  1  0  0  0
 10 11  1  0  0  0  0
 10 12  1  0  0  0  0
 11 16  1  0  0  0  0
 12 13  1  6  0  0  0
 12 14  1  0  0  0  0
 14 15  1  6  0  0  0
 14 16  1  0  0  0  0
 16 27  1  1  0  0  0
 18 19  2  0  0  0  0
 18 23  1  0  0  0  0
 19 20  1  0  0  0  0
 20 21  2  0  0  0  0
 21 22  1  0  0  0  0
 21 27  1  0  0  0  0
 22 23  2  0  0  0  0
 22 25  1  0  0  0  0
 23 24  1  0  0  0  0
 25 26  2  0  0  0  0
 26 27  1  0  0  0  0
M  END
>  <CHROM.1>
142.90761698,-176.70482414,-87.95889440,-67.13370921,-75.54671222,152.59909952
-159.23808153,46.89048923,53.93208053,34.20870808,1.63980273,0.15599095,-1.64126870

>  <Name>
ligand

>  <RI>
0

>  <Rbt.Current_Directory>
/home/itssahil/PROJECTS/Mol_Feturizer/New_Systems/rnas/3GX2

>  <Rbt.Executable>
rbdock ($Id: //depot/dev/client3/rdock/2013.1/src/exe/rbdock.cxx#4 $)

>  <Rbt.Library>
libRbt.so (2013.1, Build901 2013/11/27)

>  <Rbt.Parameter_File>
/export/apps/rDock/src/rDock_2013.1_src/data/scripts/dock_solv.prm

>  <Rbt.Receptor>
prm/pocket_docking_7.prm

>  <SCORE>
-11.9702

>  <SCORE.INTER>
-10.3614

>  <SCORE.INTER.CONST>
1

>  <SCORE.INTER.POLAR>
0

>  <SCORE.INTER.ROT>
7

>  <SCORE.INTER.SOLV>
13.4525

>  <SCORE.INTER.VDW>
-19.6584

>  <SCORE.INTER.norm>
-0.383755

>  <SCORE.INTRA>
-1.60886

>  <SCORE.INTRA.DIHEDRAL>
-2.91806

>  <SCORE.INTRA.DIHEDRAL.0>
13.9704

>  <SCORE.INTRA.POLAR>
0

>  <SCORE.INTRA.POLAR.0>
0

>  <SCORE.INTRA.REPUL>
0

>  <SCORE.INTRA.REPUL.0>
0

>  <SCORE.INTRA.SOLV>
1.54424

>  <SCORE.INTRA.SOLV.lig_0>
-70.9758

>  <SCORE.INTRA.VDW>
-0.921952

>  <SCORE.INTRA.VDW.0>
-2.70686

>  <SCORE.INTRA.norm>
-0.0595876

>  <SCORE.RESTR>
0

>  <SCORE.RESTR.CAVITY>
0

>  <SCORE.RESTR.norm>
0

>  <SCORE.SYSTEM>
0

>  <SCORE.SYSTEM.CONST>
0

>  <SCORE.SYSTEM.DIHEDRAL>
0

>  <SCORE.SYSTEM.SOLV>
0

>  <SCORE.SYSTEM.norm>
0

>  <SCORE.heavy>
27

>  <SCORE.norm>
-0.443342

>  <RMSD>
6.246

$$$$
ligand
 OpenBabel11021811483D
libRbt.so/2013.1/901 2013/11/27
 27 29  0  0  0  0  0  0  0  0999 V2000
   40.7772   53.2895   33.8804 N   0  0  0  0  0  0  0  0  0  0  0  0
   41.9243   52.3849   33.9090 C   0  0  2  0  0  0  0  0  0  0  0  0
   41.8107   51.2054   32.9409 C   0  0  0  0  0  0  0  0  0  0  0  0
   40.8679   50.4903   33.0222 O   0  0  0  0  0  0  0  0  0  0  0  0
   42.3743   51.9615   35.3229 C   0  0  0  0  0  0  0  0  0  0  0  0
   42.9326   53.0336   36.2997 C   0  0  0  0  0  0  0  0  0  0  0  0
   44.2728   53.6943   35.8804 C   0  0  2  0  0  0  0  0  0  0  0  0
   44.1900   54.3817   34.5918 N   0  0  0  0  0  0  0  0  0  0  0  0
   45.4722   52.7009   35.9689 C   0  0  0  0  0  0  0  0  0  0  0  0
   46.9090   53.2324   35.6442 C   0  0  1  0  0  0  0  0  0  0  0  0
   47.1629   53.8434   34.3444 O   0  0  0  0  0  0  0  0  0  0  0  0
   47.5406   54.2174   36.6672 C   0  0  1  0  0  0  0  0  0  0  0  0
   47.8588   53.7147   37.9715 O   0  0  0  0  0  0  0  0  0  0  0  0
   48.6276   54.9981   35.8653 C   0  0  1  0  0  0  0  0  0  0  0  0
   49.9794   54.7407   36.1604 O   0  0  0  0  0  0  0  0  0  0  0  0
   48.1464   54.8560   34.4178 C   0  0  2  0  0  0  0  0  0  0  0  0
   42.5153   51.2678   31.7221 O   0  0  0  0  0  0  0  0  0  0  0  0
   49.3906   59.8653   32.7308 N   0  0  0  0  0  0  0  0  0  0  0  0
   50.2663   58.8903   33.2222 C   0  0  0  0  0  0  0  0  0  0  0  0
   49.7523   57.5861   33.6343 N   0  0  0  0  0  0  0  0  0  0  0  0
   48.4136   57.3141   33.5392 C   0  0  0  0  0  0  0  0  0  0  0  0
   47.5389   58.3015   33.0453 C   0  0  0  0  0  0  0  0  0  0  0  0
   48.0518   59.6013   32.6355 C   0  0  0  0  0  0  0  0  0  0  0  0
   47.1448   60.6281   32.1213 N   0  0  0  0  0  0  0  0  0  0  0  0
   46.2031   57.7571   33.0536 N   0  0  0  0  0  0  0  0  0  0  0  0
   46.2786   56.4374   33.5577 C   0  0  0  0  0  0  0  0  0  0  0  0
   47.6391   56.1439   33.8623 N   0  0  0  0  0  0  0  0  0  0  0  0
  2  1  1  1  0  0  0
  2  3  1  0  0  0  0
  2  5  1  0  0  0  0
  3  4  1  0  0  0  0
  3 17  1  0  0  0  0
  5  6  1  0  0  0  0
  7  6  1  6  0  0  0
  7  8  1  0  0  0  0
  7  9  1  0  0  0  0
 10  9  1  1  0  0  0
 10 11  1  0  0  0  0
 10 12  1  0  0  0  0
 11 16  1  0  0  0  0
 12 13  1  1  0  0  0
 12 14  1  0  0  0  0
 14 15  1  6  0  0  0
 14 16  1  0  0  0  0
 16 27  1  1  0  0  0
 18 19  2  0  0  0  0
 18 23  1  0  0  0  0
 19 20  1  0  0  0  0
 20 21  2  0  0  0  0
 21 22  1  0  0  0  0
 21 27  1  0  0  0  0
 22 23  2  0  0  0  0
 22 25  1  0  0  0  0
 23 24  1  0  0  0  0
 25 26  2  0  0  0  0
 26 27  1  0  0  0  0
M  END
>  <CHROM.1>
-56.29003480,-64.75858392,-65.46016918,59.68831158,-177.11709096,-57.18582944
-167.51451594,46.01858970,54.94303235,34.32180498,2.53103381,0.49306624,2.47010535

>  <Name>
ligand

>  <RI>
0

>  <Rbt.Current_Directory>
/home/itssahil/PROJECTS/Mol_Feturizer/New_Systems/rnas/3GX2

>  <Rbt.Executable>
rbdock ($Id: //depot/dev/client3/rdock/2013.1/src/exe/rbdock.cxx#4 $)

>  <Rbt.Library>
libRbt.so (2013.1, Build901 2013/11/27)

>  <Rbt.Parameter_File>
/export/apps/rDock/src/rDock_2013.1_src/data/scripts/dock_solv.prm

>  <Rbt.Receptor>
prm/pocket_docking_8.prm

>  <SCORE>
-16.5807

>  <SCORE.INTER>
-14.2429

>  <SCORE.INTER.CONST>
1

>  <SCORE.INTER.POLAR>
0

>  <SCORE.INTER.ROT>
7

>  <SCORE.INTER.SOLV>
17.0871

>  <SCORE.INTER.VDW>
-23.4576

>  <SCORE.INTER.norm>
-0.527515

>  <SCORE.INTRA>
-2.33781

>  <SCORE.INTRA.DIHEDRAL>
-9.20538

>  <SCORE.INTRA.DIHEDRAL.0>
13.9704

>  <SCORE.INTRA.POLAR>
0

>  <SCORE.INTRA.POLAR.0>
0

>  <SCORE.INTRA.REPUL>
0

>  <SCORE.INTRA.REPUL.0>
0

>  <SCORE.INTRA.SOLV>
4.97059

>  <SCORE.INTRA.SOLV.lig_0>
-70.9758

>  <SCORE.INTRA.VDW>
-0.220413

>  <SCORE.INTRA.VDW.0>
-2.70686

>  <SCORE.INTRA.norm>
-0.0865855

>  <SCORE.RESTR>
0

>  <SCORE.RESTR.CAVITY>
0

>  <SCORE.RESTR.norm>
0

>  <SCORE.SYSTEM>
0

>  <SCORE.SYSTEM.CONST>
0

>  <SCORE.SYSTEM.DIHEDRAL>
0

>  <SCORE.SYSTEM.SOLV>
0

>  <SCORE.SYSTEM.norm>
0

>  <SCORE.heavy>
27

>  <SCORE.norm>
-0.6141

>  <RMSD>
6.251

$$$$
ligand
 OpenBabel11021811473D
libRbt.so/2013.1/901 2013/11/27
 27 29  0  0  0  0  0  0  0  0999 V2000
   46.4495   53.9841   33.9871 N   0  0  0  0  0  0  0  0  0  0  0  0
   45.1583   54.6681   33.9901 C   0  0  2  0  0  0  0  0  0  0  0  0
   44.3056   54.3822   35.2279 C   0  0  0  0  0  0  0  0  0  0  0  0
   44.7842   54.5489   36.3003 O   0  0  0  0  0  0  0  0  0  0  0  0
   44.3646   54.5491   32.6721 C   0  0  0  0  0  0  0  0  0  0  0  0
   43.6129   55.7915   32.1185 C   0  0  0  0  0  0  0  0  0  0  0  0
   44.5101   56.9639   31.6401 C   0  0  2  0  0  0  0  0  0  0  0  0
   45.5129   56.5497   30.6588 N   0  0  0  0  0  0  0  0  0  0  0  0
   45.1152   57.7670   32.8326 C   0  0  0  0  0  0  0  0  0  0  0  0
   46.4373   58.5728   32.5974 C   0  0  1  0  0  0  0  0  0  0  0  0
   47.6847   57.8457   32.3917 O   0  0  0  0  0  0  0  0  0  0  0  0
   46.4174   59.6391   31.4667 C   0  0  1  0  0  0  0  0  0  0  0  0
   45.5736   60.7847   31.6419 O   0  0  0  0  0  0  0  0  0  0  0  0
   47.9131   59.8469   31.0748 C   0  0  1  0  0  0  0  0  0  0  0  0
   48.5231   61.0681   31.4176 O   0  0  0  0  0  0  0  0  0  0  0  0
   48.5670   58.5393   31.5325 C   0  0  2  0  0  0  0  0  0  0  0  0
   42.9028   54.4075   35.0966 O   0  0  0  0  0  0  0  0  0  0  0  0
   47.9914   57.4604   26.2417 N   0  0  0  0  0  0  0  0  0  0  0  0
   47.3382   58.4504   26.9847 C   0  0  0  0  0  0  0  0  0  0  0  0
   47.6177   58.5984   28.4113 N   0  0  0  0  0  0  0  0  0  0  0  0
   48.5202   57.7706   29.0239 C   0  0  0  0  0  0  0  0  0  0  0  0
   49.1718   56.7757   28.2692 C   0  0  0  0  0  0  0  0  0  0  0  0
   48.8922   56.6282   26.8478 C   0  0  0  0  0  0  0  0  0  0  0  0
   49.5688   55.5958   26.0619 N   0  0  0  0  0  0  0  0  0  0  0  0
   50.0562   56.0552   29.1522 N   0  0  0  0  0  0  0  0  0  0  0  0
   49.9311   56.6205   30.4431 C   0  0  0  0  0  0  0  0  0  0  0  0
   48.9862   57.6852   30.3837 N   0  0  0  0  0  0  0  0  0  0  0  0
  2  1  1  6  0  0  0
  2  3  1  0  0  0  0
  2  5  1  0  0  0  0
  3  4  1  0  0  0  0
  3 17  1  0  0  0  0
  5  6  1  0  0  0  0
  7  6  1  1  0  0  0
  7  8  1  0  0  0  0
  7  9  1  0  0  0  0
 10  9  1  6  0  0  0
 10 11  1  0  0  0  0
 10 12  1  0  0  0  0
 11 16  1  0  0  0  0
 12 13  1  1  0  0  0
 12 14  1  0  0  0  0
 14 15  1  1  0  0  0
 14 16  1  0  0  0  0
 16 27  1  6  0  0  0
 18 19  2  0  0  0  0
 18 23  1  0  0  0  0
 19 20  1  0  0  0  0
 20 21  2  0  0  0  0
 21 22  1  0  0  0  0
 21 27  1  0  0  0  0
 22 23  2  0  0  0  0
 22 25  1  0  0  0  0
 23 24  1  0  0  0  0
 25 26  2  0  0  0  0
 26 27  1  0  0  0  0
M  END
>  <CHROM.1>
52.81874655,-138.85436833,67.06962340,53.98418881,155.92451732,-69.78679259
104.22086843,46.82072784,57.09930211,31.16333935,-2.99907820,0.99833277,0.23395012

>  <Name>
ligand

>  <RI>
0

>  <Rbt.Current_Directory>
/home/itssahil/PROJECTS/Mol_Feturizer/New_Systems/rnas/3GX2

>  <Rbt.Executable>
rbdock ($Id: //depot/dev/client3/rdock/2013.1/src/exe/rbdock.cxx#4 $)

>  <Rbt.Library>
libRbt.so (2013.1, Build901 2013/11/27)

>  <Rbt.Parameter_File>
/export/apps/rDock/src/rDock_2013.1_src/data/scripts/dock_solv.prm

>  <Rbt.Receptor>
prm/pocket_docking_5.prm

>  <SCORE>
-11.4108

>  <SCORE.INTER>
-11.9202

>  <SCORE.INTER.CONST>
1

>  <SCORE.INTER.POLAR>
0

>  <SCORE.INTER.ROT>
7

>  <SCORE.INTER.SOLV>
14.05

>  <SCORE.INTER.VDW>
-20.8968

>  <SCORE.INTER.norm>
-0.441488

>  <SCORE.INTRA>
0.509373

>  <SCORE.INTRA.DIHEDRAL>
-3.07023

>  <SCORE.INTRA.DIHEDRAL.0>
13.9704

>  <SCORE.INTRA.POLAR>
0

>  <SCORE.INTRA.POLAR.0>
0

>  <SCORE.INTRA.REPUL>
0

>  <SCORE.INTRA.REPUL.0>
0

>  <SCORE.INTRA.SOLV>
4.49801

>  <SCORE.INTRA.SOLV.lig_0>
-70.9758

>  <SCORE.INTRA.VDW>
-0.204518

>  <SCORE.INTRA.VDW.0>
-2.70686

>  <SCORE.INTRA.norm>
0.0188657

>  <SCORE.RESTR>
0

>  <SCORE.RESTR.CAVITY>
0

>  <SCORE.RESTR.norm>
0

>  <SCORE.SYSTEM>
0

>  <SCORE.SYSTEM.CONST>
0

>  <SCORE.SYSTEM.DIHEDRAL>
0

>  <SCORE.SYSTEM.SOLV>
0

>  <SCORE.SYSTEM.norm>
0

>  <SCORE.heavy>
27

>  <SCORE.norm>
-0.422623

>  <RMSD>
6.258

$$$$
ligand
 OpenBabel11021811483D
libRbt.so/2013.1/901 2013/11/27
 27 29  0  0  0  0  0  0  0  0999 V2000
   47.8586   53.0105   34.3126 N   0  0  0  0  0  0  0  0  0  0  0  0
   47.8270   54.4089   34.7352 C   0  0  2  0  0  0  0  0  0  0  0  0
   48.1502   54.6188   36.2159 C   0  0  0  0  0  0  0  0  0  0  0  0
   47.5847   53.9574   37.0219 O   0  0  0  0  0  0  0  0  0  0  0  0
   46.5795   55.1917   34.2748 C   0  0  0  0  0  0  0  0  0  0  0  0
   46.3062   55.3677   32.7551 C   0  0  0  0  0  0  0  0  0  0  0  0
   45.0979   56.2698   32.3879 C   0  0  2  0  0  0  0  0  0  0  0  0
   44.8387   56.3165   30.9490 N   0  0  0  0  0  0  0  0  0  0  0  0
   45.1998   57.6841   33.0381 C   0  0  0  0  0  0  0  0  0  0  0  0
   46.4657   58.5558   32.7380 C   0  0  1  0  0  0  0  0  0  0  0  0
   47.7592   57.8997   32.5846 O   0  0  0  0  0  0  0  0  0  0  0  0
   46.3771   59.5287   31.5291 C   0  0  1  0  0  0  0  0  0  0  0  0
   45.4585   60.6257   31.6188 O   0  0  0  0  0  0  0  0  0  0  0  0
   47.8564   59.8051   31.1178 C   0  0  1  0  0  0  0  0  0  0  0  0
   48.3830   61.0869   31.3644 O   0  0  0  0  0  0  0  0  0  0  0  0
   48.5951   58.5828   31.6721 C   0  0  2  0  0  0  0  0  0  0  0  0
   49.3900   55.1956   36.5567 O   0  0  0  0  0  0  0  0  0  0  0  0
   48.3730   57.3059   26.3988 N   0  0  0  0  0  0  0  0  0  0  0  0
   47.6951   58.3406   27.0535 C   0  0  0  0  0  0  0  0  0  0  0  0
   47.8750   58.5392   28.4899 N   0  0  0  0  0  0  0  0  0  0  0  0
   48.7082   57.7150   29.1983 C   0  0  0  0  0  0  0  0  0  0  0  0
   49.3852   56.6749   28.5320 C   0  0  0  0  0  0  0  0  0  0  0  0
   49.2048   56.4772   27.1006 C   0  0  0  0  0  0  0  0  0  0  0  0
   49.9081   55.3978   26.4065 N   0  0  0  0  0  0  0  0  0  0  0  0
   50.1838   55.9693   29.5042 N   0  0  0  0  0  0  0  0  0  0  0  0
   49.9814   56.5891   30.7598 C   0  0  0  0  0  0  0  0  0  0  0  0
   49.0725   57.6732   30.5907 N   0  0  0  0  0  0  0  0  0  0  0  0
  2  1  1  1  0  0  0
  2  3  1  0  0  0  0
  2  5  1  0  0  0  0
  3  4  1  0  0  0  0
  3 17  1  0  0  0  0
  5  6  1  0  0  0  0
  7  6  1  6  0  0  0
  7  8  1  0  0  0  0
  7  9  1  0  0  0  0
 10  9  1  6  0  0  0
 10 11  1  0  0  0  0
 10 12  1  0  0  0  0
 11 16  1  0  0  0  0
 12 13  1  1  0  0  0
 12 14  1  0  0  0  0
 14 15  1  1  0  0  0
 14 16  1  0  0  0  0
 16 27  1  6  0  0  0
 18 19  2  0  0  0  0
 18 23  1  0  0  0  0
 19 20  1  0  0  0  0
 20 21  2  0  0  0  0
 21 22  1  0  0  0  0
 21 27  1  0  0  0  0
 22 23  2  0  0  0  0
 22 25  1  0  0  0  0
 23 24  1  0  0  0  0
 25 26  2  0  0  0  0
 26 27  1  0  0  0  0
M  END
>  <CHROM.1>
-49.33249882,-61.69632687,-174.98821039,-175.90995741,57.19805545,-35.33057672
111.30451423,47.75827205,57.00040428,31.55621743,-1.81654074,1.00727906,-0.97313640

>  <Name>
ligand

>  <RI>
0

>  <Rbt.Current_Directory>
/home/itssahil/PROJECTS/Mol_Feturizer/New_Systems/rnas/3GX2

>  <Rbt.Executable>
rbdock ($Id: //depot/dev/client3/rdock/2013.1/src/exe/rbdock.cxx#4 $)

>  <Rbt.Library>
libRbt.so (2013.1, Build901 2013/11/27)

>  <Rbt.Parameter_File>
/export/apps/rDock/src/rDock_2013.1_src/data/scripts/dock_solv.prm

>  <Rbt.Receptor>
prm/pocket_docking_8.prm

>  <SCORE>
-14.4614

>  <SCORE.INTER>
-11.6571

>  <SCORE.INTER.CONST>
1

>  <SCORE.INTER.POLAR>
0

>  <SCORE.INTER.ROT>
7

>  <SCORE.INTER.SOLV>
15.4728

>  <SCORE.INTER.VDW>
-21.1956

>  <SCORE.INTER.norm>
-0.431743

>  <SCORE.INTRA>
-2.80433

>  <SCORE.INTRA.DIHEDRAL>
-7.29872

>  <SCORE.INTRA.DIHEDRAL.0>
13.9704

>  <SCORE.INTRA.POLAR>
0

>  <SCORE.INTRA.POLAR.0>
0

>  <SCORE.INTRA.REPUL>
0

>  <SCORE.INTRA.REPUL.0>
0

>  <SCORE.INTRA.SOLV>
1.29827

>  <SCORE.INTRA.SOLV.lig_0>
-70.9758

>  <SCORE.INTRA.VDW>
0.195902

>  <SCORE.INTRA.VDW.0>
-2.70686

>  <SCORE.INTRA.norm>
-0.103864

>  <SCORE.RESTR>
0

>  <SCORE.RESTR.CAVITY>
0

>  <SCORE.RESTR.norm>
0

>  <SCORE.SYSTEM>
0

>  <SCORE.SYSTEM.CONST>
0

>  <SCORE.SYSTEM.DIHEDRAL>
0

>  <SCORE.SYSTEM.SOLV>
0

>  <SCORE.SYSTEM.norm>
0

>  <SCORE.heavy>
27

>  <SCORE.norm>
-0.535607

>  <RMSD>
6.262

$$$$
ligand
 OpenBabel11021811473D
libRbt.so/2013.1/901 2013/11/27
 27 29  0  0  0  0  0  0  0  0999 V2000
   48.1745   52.6607   29.2342 N   0  0  0  0  0  0  0  0  0  0  0  0
   49.4372   53.3866   29.3512 C   0  0  2  0  0  0  0  0  0  0  0  0
   50.4894   52.9750   28.3194 C   0  0  0  0  0  0  0  0  0  0  0  0
   50.3579   51.9413   27.7528 O   0  0  0  0  0  0  0  0  0  0  0  0
   50.0009   53.4692   30.7853 C   0  0  0  0  0  0  0  0  0  0  0  0
   49.1548   54.1435   31.9008 C   0  0  0  0  0  0  0  0  0  0  0  0
   48.6708   55.5870   31.5997 C   0  0  2  0  0  0  0  0  0  0  0  0
   49.7726   56.5164   31.3501 N   0  0  0  0  0  0  0  0  0  0  0  0
   47.6627   56.1056   32.6712 C   0  0  0  0  0  0  0  0  0  0  0  0
   46.3844   55.2521   32.9704 C   0  0  1  0  0  0  0  0  0  0  0  0
   46.5047   54.0620   33.8049 O   0  0  0  0  0  0  0  0  0  0  0  0
   45.1546   56.0084   33.5463 C   0  0  1  0  0  0  0  0  0  0  0  0
   44.5011   56.9645   32.7013 O   0  0  0  0  0  0  0  0  0  0  0  0
   44.3018   54.9159   34.2627 C   0  0  1  0  0  0  0  0  0  0  0  0
   43.0723   54.5511   33.6831 O   0  0  0  0  0  0  0  0  0  0  0  0
   45.3333   53.8226   34.5588 C   0  0  2  0  0  0  0  0  0  0  0  0
   51.2767   53.9818   27.7259 O   0  0  0  0  0  0  0  0  0  0  0  0
   49.0406   54.4899   38.4701 N   0  0  0  0  0  0  0  0  0  0  0  0
   49.1928   54.7391   37.1014 C   0  0  0  0  0  0  0  0  0  0  0  0
   48.0791   54.5004   36.1860 N   0  0  0  0  0  0  0  0  0  0  0  0
   46.8840   54.0342   36.6651 C   0  0  0  0  0  0  0  0  0  0  0  0
   46.7399   53.7842   38.0438 C   0  0  0  0  0  0  0  0  0  0  0  0
   47.8504   54.0216   38.9553 C   0  0  0  0  0  0  0  0  0  0  0  0
   47.7023   53.7634   40.3881 N   0  0  0  0  0  0  0  0  0  0  0  0
   45.3986   53.3045   38.2712 N   0  0  0  0  0  0  0  0  0  0  0  0
   44.7373   53.2647   37.0212 C   0  0  0  0  0  0  0  0  0  0  0  0
   45.6397   53.7147   36.0146 N   0  0  0  0  0  0  0  0  0  0  0  0
  2  1  1  1  0  0  0
  2  3  1  0  0  0  0
  2  5  1  0  0  0  0
  3  4  1  0  0  0  0
  3 17  1  0  0  0  0
  5  6  1  0  0  0  0
  7  6  1  1  0  0  0
  7  8  1  0  0  0  0
  7  9  1  0  0  0  0
 10  9  1  1  0  0  0
 10 11  1  0  0  0  0
 10 12  1  0  0  0  0
 11 16  1  0  0  0  0
 12 13  1  6  0  0  0
 12 14  1  0  0  0  0
 14 15  1  6  0  0  0
 14 16  1  0  0  0  0
 16 27  1  1  0  0  0
 18 19  2  0  0  0  0
 18 23  1  0  0  0  0
 19 20  1  0  0  0  0
 20 21  2  0  0  0  0
 21 22  1  0  0  0  0
 21 27  1  0  0  0  0
 22 23  2  0  0  0  0
 22 25  1  0  0  0  0
 23 24  1  0  0  0  0
 25 26  2  0  0  0  0
 26 27  1  0  0  0  0
M  END
>  <CHROM.1>
-17.94705973,-59.46289402,-54.30419997,-59.12784185,-54.72958125,77.65579177
10.62713915,47.47198112,54.29876341,33.68676369,1.18131293,0.24945222,-1.52636209

>  <Name>
ligand

>  <RI>
0

>  <Rbt.Current_Directory>
/home/itssahil/PROJECTS/Mol_Feturizer/New_Systems/rnas/3GX2

>  <Rbt.Executable>
rbdock ($Id: //depot/dev/client3/rdock/2013.1/src/exe/rbdock.cxx#4 $)

>  <Rbt.Library>
libRbt.so (2013.1, Build901 2013/11/27)

>  <Rbt.Parameter_File>
/export/apps/rDock/src/rDock_2013.1_src/data/scripts/dock_solv.prm

>  <Rbt.Receptor>
prm/pocket_docking_7.prm

>  <SCORE>
-12.327

>  <SCORE.INTER>
-8.90269

>  <SCORE.INTER.CONST>
1

>  <SCORE.INTER.POLAR>
0

>  <SCORE.INTER.ROT>
7

>  <SCORE.INTER.SOLV>
12.8616

>  <SCORE.INTER.VDW>
-18.489

>  <SCORE.INTER.norm>
-0.329729

>  <SCORE.INTRA>
-3.4243

>  <SCORE.INTRA.DIHEDRAL>
-8.02506

>  <SCORE.INTRA.DIHEDRAL.0>
13.9704

>  <SCORE.INTRA.POLAR>
0

>  <SCORE.INTRA.POLAR.0>
0

>  <SCORE.INTRA.REPUL>
0

>  <SCORE.INTRA.REPUL.0>
0

>  <SCORE.INTRA.SOLV>
1.16109

>  <SCORE.INTRA.SOLV.lig_0>
-70.9758

>  <SCORE.INTRA.VDW>
0.0076797

>  <SCORE.INTRA.VDW.0>
-2.70686

>  <SCORE.INTRA.norm>
-0.126826

>  <SCORE.RESTR>
0

>  <SCORE.RESTR.CAVITY>
0

>  <SCORE.RESTR.norm>
0

>  <SCORE.SYSTEM>
0

>  <SCORE.SYSTEM.CONST>
0

>  <SCORE.SYSTEM.DIHEDRAL>
0

>  <SCORE.SYSTEM.SOLV>
0

>  <SCORE.SYSTEM.norm>
0

>  <SCORE.heavy>
27

>  <SCORE.norm>
-0.456556

>  <RMSD>
6.263

$$$$
ligand
 OpenBabel11021811473D
libRbt.so/2013.1/901 2013/11/27
 27 29  0  0  0  0  0  0  0  0999 V2000
   48.4081   59.8523   31.4230 N   0  0  0  0  0  0  0  0  0  0  0  0
   49.4614   58.8402   31.3906 C   0  0  2  0  0  0  0  0  0  0  0  0
   49.1823   57.6822   30.4301 C   0  0  0  0  0  0  0  0  0  0  0  0
   49.8915   56.7321   30.4618 O   0  0  0  0  0  0  0  0  0  0  0  0
   49.9423   58.3679   32.7787 C   0  0  0  0  0  0  0  0  0  0  0  0
   48.8944   58.0161   33.8710 C   0  0  0  0  0  0  0  0  0  0  0  0
   48.4873   56.5211   33.9575 C   0  0  2  0  0  0  0  0  0  0  0  0
   49.6043   55.6465   34.3145 N   0  0  0  0  0  0  0  0  0  0  0  0
   47.7191   56.0454   32.6859 C   0  0  0  0  0  0  0  0  0  0  0  0
   46.4182   55.1939   32.8728 C   0  0  1  0  0  0  0  0  0  0  0  0
   46.4512   54.0311   33.7526 O   0  0  0  0  0  0  0  0  0  0  0  0
   45.1317   55.9604   33.2892 C   0  0  1  0  0  0  0  0  0  0  0  0
   44.5704   56.8859   32.3492 O   0  0  0  0  0  0  0  0  0  0  0  0
   44.2096   54.8856   33.9439 C   0  0  1  0  0  0  0  0  0  0  0  0
   43.0505   54.4957   33.2473 O   0  0  0  0  0  0  0  0  0  0  0  0
   45.2061   53.8083   34.3834 C   0  0  2  0  0  0  0  0  0  0  0  0
   47.8815   57.5441   29.9061 O   0  0  0  0  0  0  0  0  0  0  0  0
   48.6110   54.0161   38.6084 N   0  0  0  0  0  0  0  0  0  0  0  0
   48.9308   54.1315   37.2508 C   0  0  0  0  0  0  0  0  0  0  0  0
   47.8773   54.0503   36.2416 N   0  0  0  0  0  0  0  0  0  0  0  0
   46.5751   53.8630   36.6214 C   0  0  0  0  0  0  0  0  0  0  0  0
   46.2621   53.7459   37.9898 C   0  0  0  0  0  0  0  0  0  0  0  0
   47.3126   53.8262   38.9950 C   0  0  0  0  0  0  0  0  0  0  0  0
   46.9893   53.7057   40.4171 N   0  0  0  0  0  0  0  0  0  0  0  0
   44.8368   53.5559   38.1056 N   0  0  0  0  0  0  0  0  0  0  0  0
   44.2943   53.5566   36.7990 C   0  0  0  0  0  0  0  0  0  0  0  0
   45.3544   53.7474   35.8664 N   0  0  0  0  0  0  0  0  0  0  0  0
  2  1  1  1  0  0  0
  2  3  1  0  0  0  0
  2  5  1  0  0  0  0
  3  4  1  0  0  0  0
  3 17  1  0  0  0  0
  5  6  1  0  0  0  0
  7  6  1  6  0  0  0
  7  8  1  0  0  0  0
  7  9  1  0  0  0  0
 10  9  1  1  0  0  0
 10 11  1  0  0  0  0
 10 12  1  0  0  0  0
 11 16  1  0  0  0  0
 12 13  1  6  0  0  0
 12 14  1  0  0  0  0
 14 15  1  6  0  0  0
 14 16  1  0  0  0  0
 16 27  1  1  0  0  0
 18 19  2  0  0  0  0
 18 23  1  0  0  0  0
 19 20  1  0  0  0  0
 20 21  2  0  0  0  0
 21 22  1  0  0  0  0
 21 27  1  0  0  0  0
 22 23  2  0  0  0  0
 22 25  1  0  0  0  0
 23 24  1  0  0  0  0
 25 26  2  0  0  0  0
 26 27  1  0  0  0  0
M  END
>  <CHROM.1>
-170.39296850,46.02811261,93.64588428,62.97969086,-134.28558562,-50.11601351
-1.26741719,47.09083884,55.55324068,34.39665490,-1.25187221,0.35738870,2.02402400

>  <Name>
ligand

>  <RI>
0

>  <Rbt.Current_Directory>
/home/itssahil/PROJECTS/Mol_Feturizer/New_Systems/rnas/3GX2

>  <Rbt.Executable>
rbdock ($Id: //depot/dev/client3/rdock/2013.1/src/exe/rbdock.cxx#4 $)

>  <Rbt.Library>
libRbt.so (2013.1, Build901 2013/11/27)

>  <Rbt.Parameter_File>
/export/apps/rDock/src/rDock_2013.1_src/data/scripts/dock_solv.prm

>  <Rbt.Receptor>
prm/pocket_docking_6.prm

>  <SCORE>
-10.2379

>  <SCORE.INTER>
-11.7121

>  <SCORE.INTER.CONST>
1

>  <SCORE.INTER.POLAR>
0

>  <SCORE.INTER.ROT>
7

>  <SCORE.INTER.SOLV>
13.5128

>  <SCORE.INTER.VDW>
-20.579

>  <SCORE.INTER.norm>
-0.433782

>  <SCORE.INTRA>
1.46321

>  <SCORE.INTRA.DIHEDRAL>
-0.0148662

>  <SCORE.INTRA.DIHEDRAL.0>
13.9704

>  <SCORE.INTRA.POLAR>
0

>  <SCORE.INTRA.POLAR.0>
0

>  <SCORE.INTRA.REPUL>
0

>  <SCORE.INTRA.REPUL.0>
0

>  <SCORE.INTRA.SOLV>
3.91091

>  <SCORE.INTRA.SOLV.lig_0>
-70.9758

>  <SCORE.INTRA.VDW>
-0.484813

>  <SCORE.INTRA.VDW.0>
-2.70686

>  <SCORE.INTRA.norm>
0.054193

>  <SCORE.RESTR>
0.0109874

>  <SCORE.RESTR.CAVITY>
0.0109874

>  <SCORE.RESTR.norm>
0.000406939

>  <SCORE.SYSTEM>
0

>  <SCORE.SYSTEM.CONST>
0

>  <SCORE.SYSTEM.DIHEDRAL>
0

>  <SCORE.SYSTEM.SOLV>
0

>  <SCORE.SYSTEM.norm>
0

>  <SCORE.heavy>
27

>  <SCORE.norm>
-0.379182

>  <RMSD>
6.278

$$$$
ligand
 OpenBabel11021811473D
libRbt.so/2013.1/901 2013/11/27
 27 29  0  0  0  0  0  0  0  0999 V2000
   46.3187   54.3387   33.3580 N   0  0  0  0  0  0  0  0  0  0  0  0
   46.6035   53.6384   34.6084 C   0  0  2  0  0  0  0  0  0  0  0  0
   45.8553   54.1988   35.8197 C   0  0  0  0  0  0  0  0  0  0  0  0
   44.7103   54.4842   35.7001 O   0  0  0  0  0  0  0  0  0  0  0  0
   48.1028   53.4000   34.8848 C   0  0  0  0  0  0  0  0  0  0  0  0
   49.0455   54.6190   35.0862 C   0  0  0  0  0  0  0  0  0  0  0  0
   49.1669   55.5838   33.8767 C   0  0  2  0  0  0  0  0  0  0  0  0
   50.5501   55.9605   33.5855 N   0  0  0  0  0  0  0  0  0  0  0  0
   48.2118   56.8105   34.0037 C   0  0  0  0  0  0  0  0  0  0  0  0
   48.2838   57.9307   32.9117 C   0  0  1  0  0  0  0  0  0  0  0  0
   49.3752   57.9100   31.9445 O   0  0  0  0  0  0  0  0  0  0  0  0
   47.0077   58.1571   32.0536 C   0  0  1  0  0  0  0  0  0  0  0  0
   45.8401   58.6655   32.7120 O   0  0  0  0  0  0  0  0  0  0  0  0
   47.5101   58.8506   30.7495 C   0  0  1  0  0  0  0  0  0  0  0  0
   47.1775   60.2035   30.5496 O   0  0  0  0  0  0  0  0  0  0  0  0
   48.9834   58.4347   30.6919 C   0  0  2  0  0  0  0  0  0  0  0  0
   46.3565   53.9181   37.1065 O   0  0  0  0  0  0  0  0  0  0  0  0
   47.7850   56.8784   25.6294 N   0  0  0  0  0  0  0  0  0  0  0  0
   47.2372   57.9508   26.3426 C   0  0  0  0  0  0  0  0  0  0  0  0
   47.6816   58.2250   27.7073 N   0  0  0  0  0  0  0  0  0  0  0  0
   48.6357   57.4349   28.2908 C   0  0  0  0  0  0  0  0  0  0  0  0
   49.1804   56.3564   27.5668 C   0  0  0  0  0  0  0  0  0  0  0  0
   48.7366   56.0833   26.2070 C   0  0  0  0  0  0  0  0  0  0  0  0
   49.3020   54.9640   25.4529 N   0  0  0  0  0  0  0  0  0  0  0  0
   50.1495   55.6990   28.4092 N   0  0  0  0  0  0  0  0  0  0  0  0
   50.1828   56.3864   29.6453 C   0  0  0  0  0  0  0  0  0  0  0  0
   49.2540   57.4655   29.5909 N   0  0  0  0  0  0  0  0  0  0  0  0
  2  1  1  6  0  0  0
  2  3  1  0  0  0  0
  2  5  1  0  0  0  0
  3  4  1  0  0  0  0
  3 17  1  0  0  0  0
  5  6  1  0  0  0  0
  7  6  1  1  0  0  0
  7  8  1  0  0  0  0
  7  9  1  0  0  0  0
 10  9  1  6  0  0  0
 10 11  1  0  0  0  0
 10 12  1  0  0  0  0
 11 16  1  0  0  0  0
 12 13  1  1  0  0  0
 12 14  1  0  0  0  0
 14 15  1  1  0  0  0
 14 16  1  0  0  0  0
 16 27  1  6  0  0  0
 18 19  2  0  0  0  0
 18 23  1  0  0  0  0
 19 20  1  0  0  0  0
 20 21  2  0  0  0  0
 21 22  1  0  0  0  0
 21 27  1  0  0  0  0
 22 23  2  0  0  0  0
 22 25  1  0  0  0  0
 23 24  1  0  0  0  0
 25 26  2  0  0  0  0
 26 27  1  0  0  0  0
M  END
>  <CHROM.1>
43.09095077,63.63354612,-61.61787980,-134.41796244,175.84600927,-10.01976910
158.64673186,47.99744452,56.46557994,31.40738493,-2.10292437,1.17702975,-0.77677160

>  <Name>
ligand

>  <RI>
0

>  <Rbt.Current_Directory>
/home/itssahil/PROJECTS/Mol_Feturizer/New_Systems/rnas/3GX2

>  <Rbt.Executable>
rbdock ($Id: //depot/dev/client3/rdock/2013.1/src/exe/rbdock.cxx#4 $)

>  <Rbt.Library>
libRbt.so (2013.1, Build901 2013/11/27)

>  <Rbt.Parameter_File>
/export/apps/rDock/src/rDock_2013.1_src/data/scripts/dock_solv.prm

>  <Rbt.Receptor>
prm/pocket_docking_6.prm

>  <SCORE>
-8.89695

>  <SCORE.INTER>
-11.3356

>  <SCORE.INTER.CONST>
1

>  <SCORE.INTER.POLAR>
0

>  <SCORE.INTER.ROT>
7

>  <SCORE.INTER.SOLV>
14.3336

>  <SCORE.INTER.VDW>
-20.6016

>  <SCORE.INTER.norm>
-0.419836

>  <SCORE.INTRA>
2.43863

>  <SCORE.INTRA.DIHEDRAL>
0.725433

>  <SCORE.INTRA.DIHEDRAL.0>
13.9704

>  <SCORE.INTRA.POLAR>
0

>  <SCORE.INTRA.POLAR.0>
0

>  <SCORE.INTRA.REPUL>
0

>  <SCORE.INTRA.REPUL.0>
0

>  <SCORE.INTRA.SOLV>
4.28272

>  <SCORE.INTRA.SOLV.lig_0>
-70.9758

>  <SCORE.INTRA.VDW>
-0.0654487

>  <SCORE.INTRA.VDW.0>
-2.70686

>  <SCORE.INTRA.norm>
0.0903195

>  <SCORE.RESTR>
0

>  <SCORE.RESTR.CAVITY>
0

>  <SCORE.RESTR.norm>
0

>  <SCORE.SYSTEM>
0

>  <SCORE.SYSTEM.CONST>
0

>  <SCORE.SYSTEM.DIHEDRAL>
0

>  <SCORE.SYSTEM.SOLV>
0

>  <SCORE.SYSTEM.norm>
0

>  <SCORE.heavy>
27

>  <SCORE.norm>
-0.329517

>  <RMSD>
6.284

$$$$
ligand
 OpenBabel11021811473D
libRbt.so/2013.1/901 2013/11/27
 27 29  0  0  0  0  0  0  0  0999 V2000
   47.9003   52.9739   34.4601 N   0  0  0  0  0  0  0  0  0  0  0  0
   47.8559   54.3822   34.8470 C   0  0  2  0  0  0  0  0  0  0  0  0
   48.1685   54.6318   36.3239 C   0  0  0  0  0  0  0  0  0  0  0  0
   47.6983   53.9067   37.1363 O   0  0  0  0  0  0  0  0  0  0  0  0
   46.6055   55.1439   34.3597 C   0  0  0  0  0  0  0  0  0  0  0  0
   46.3532   55.3008   32.8343 C   0  0  0  0  0  0  0  0  0  0  0  0
   45.1493   56.1968   32.4392 C   0  0  2  0  0  0  0  0  0  0  0  0
   44.9153   56.2321   30.9956 N   0  0  0  0  0  0  0  0  0  0  0  0
   45.2360   57.6161   33.0805 C   0  0  0  0  0  0  0  0  0  0  0  0
   46.4697   58.5176   32.7375 C   0  0  1  0  0  0  0  0  0  0  0  0
   47.7730   57.8928   32.5417 O   0  0  0  0  0  0  0  0  0  0  0  0
   46.3174   59.4861   31.5314 C   0  0  1  0  0  0  0  0  0  0  0  0
   45.3760   60.5607   31.6507 O   0  0  0  0  0  0  0  0  0  0  0  0
   47.7751   59.7975   31.0708 C   0  0  1  0  0  0  0  0  0  0  0  0
   48.2784   61.0920   31.2985 O   0  0  0  0  0  0  0  0  0  0  0  0
   48.5612   58.5944   31.6013 C   0  0  2  0  0  0  0  0  0  0  0  0
   49.3319   55.3570   36.6501 O   0  0  0  0  0  0  0  0  0  0  0  0
   48.2654   57.3622   26.3210 N   0  0  0  0  0  0  0  0  0  0  0  0
   47.5955   58.3904   26.9941 C   0  0  0  0  0  0  0  0  0  0  0  0
   47.7957   58.5769   28.4295 N   0  0  0  0  0  0  0  0  0  0  0  0
   48.6400   57.7478   29.1188 C   0  0  0  0  0  0  0  0  0  0  0  0
   49.3087   56.7144   28.4340 C   0  0  0  0  0  0  0  0  0  0  0  0
   49.1082   56.5287   27.0037 C   0  0  0  0  0  0  0  0  0  0  0  0
   49.8028   55.4563   26.2904 N   0  0  0  0  0  0  0  0  0  0  0  0
   50.1221   56.0017   29.3886 N   0  0  0  0  0  0  0  0  0  0  0  0
   49.9369   56.6104   30.6522 C   0  0  0  0  0  0  0  0  0  0  0  0
   49.0243   57.6946   30.5055 N   0  0  0  0  0  0  0  0  0  0  0  0
  2  1  1  1  0  0  0
  2  3  1  0  0  0  0
  2  5  1  0  0  0  0
  3  4  1  0  0  0  0
  3 17  1  0  0  0  0
  5  6  1  0  0  0  0
  7  6  1  6  0  0  0
  7  8  1  0  0  0  0
  7  9  1  0  0  0  0
 10  9  1  6  0  0  0
 10 11  1  0  0  0  0
 10 12  1  0  0  0  0
 11 16  1  0  0  0  0
 12 13  1  1  0  0  0
 12 14  1  0  0  0  0
 14 15  1  1  0  0  0
 14 16  1  0  0  0  0
 16 27  1  6  0  0  0
 18 19  2  0  0  0  0
 18 23  1  0  0  0  0
 19 20  1  0  0  0  0
 20 21  2  0  0  0  0
 21 22  1  0  0  0  0
 21 27  1  0  0  0  0
 22 23  2  0  0  0  0
 22 25  1  0  0  0  0
 23 24  1  0  0  0  0
 25 26  2  0  0  0  0
 26 27  1  0  0  0  0
M  END
>  <CHROM.1>
-42.46227459,-62.74967457,-174.29006452,-176.27393691,60.28135037,-35.12529529
113.10001414,47.73159875,56.99918640,31.55096772,-1.79094830,1.02211977,-0.99797674

>  <Name>
ligand

>  <RI>
0

>  <Rbt.Current_Directory>
/home/itssahil/PROJECTS/Mol_Feturizer/New_Systems/rnas/3GX2

>  <Rbt.Executable>
rbdock ($Id: //depot/dev/client3/rdock/2013.1/src/exe/rbdock.cxx#4 $)

>  <Rbt.Library>
libRbt.so (2013.1, Build901 2013/11/27)

>  <Rbt.Parameter_File>
/export/apps/rDock/src/rDock_2013.1_src/data/scripts/dock_solv.prm

>  <Rbt.Receptor>
prm/pocket_docking_4.prm

>  <SCORE>
-14.3791

>  <SCORE.INTER>
-11.6297

>  <SCORE.INTER.CONST>
1

>  <SCORE.INTER.POLAR>
0

>  <SCORE.INTER.ROT>
7

>  <SCORE.INTER.SOLV>
15.7793

>  <SCORE.INTER.VDW>
-21.2796

>  <SCORE.INTER.norm>
-0.430731

>  <SCORE.INTRA>
-2.74937

>  <SCORE.INTRA.DIHEDRAL>
-7.27654

>  <SCORE.INTRA.DIHEDRAL.0>
13.9704

>  <SCORE.INTRA.POLAR>
0

>  <SCORE.INTRA.POLAR.0>
0

>  <SCORE.INTRA.REPUL>
0

>  <SCORE.INTRA.REPUL.0>
0

>  <SCORE.INTRA.SOLV>
1.39684

>  <SCORE.INTRA.SOLV.lig_0>
-70.9758

>  <SCORE.INTRA.VDW>
0.190475

>  <SCORE.INTRA.VDW.0>
-2.70686

>  <SCORE.INTRA.norm>
-0.101829

>  <SCORE.RESTR>
0

>  <SCORE.RESTR.CAVITY>
0

>  <SCORE.RESTR.norm>
0

>  <SCORE.SYSTEM>
0

>  <SCORE.SYSTEM.CONST>
0

>  <SCORE.SYSTEM.DIHEDRAL>
0

>  <SCORE.SYSTEM.SOLV>
0

>  <SCORE.SYSTEM.norm>
0

>  <SCORE.heavy>
27

>  <SCORE.norm>
-0.53256

>  <RMSD>
6.289

$$$$
ligand
 OpenBabel11021811473D
libRbt.so/2013.1/901 2013/11/27
 27 29  0  0  0  0  0  0  0  0999 V2000
   50.3762   54.5488   30.4722 N   0  0  0  0  0  0  0  0  0  0  0  0
   49.2103   54.3732   31.3352 C   0  0  2  0  0  0  0  0  0  0  0  0
   47.9023   54.8808   30.7247 C   0  0  0  0  0  0  0  0  0  0  0  0
   47.9374   55.8228   30.0048 O   0  0  0  0  0  0  0  0  0  0  0  0
   49.4136   54.8368   32.7929 C   0  0  0  0  0  0  0  0  0  0  0  0
   49.9654   56.2628   33.0709 C   0  0  0  0  0  0  0  0  0  0  0  0
   49.0844   57.4364   32.5659 C   0  0  2  0  0  0  0  0  0  0  0  0
   49.8155   58.7004   32.4785 N   0  0  0  0  0  0  0  0  0  0  0  0
   47.7486   57.5552   33.3627 C   0  0  0  0  0  0  0  0  0  0  0  0
   46.6792   56.4224   33.2028 C   0  0  1  0  0  0  0  0  0  0  0  0
   46.8741   55.1581   33.9034 O   0  0  0  0  0  0  0  0  0  0  0  0
   45.2017   56.8059   33.4960 C   0  0  1  0  0  0  0  0  0  0  0  0
   44.5645   57.7383   32.6129 O   0  0  0  0  0  0  0  0  0  0  0  0
   44.4877   55.4586   33.8259 C   0  0  1  0  0  0  0  0  0  0  0  0
   43.5613   54.9554   32.8935 O   0  0  0  0  0  0  0  0  0  0  0  0
   45.6469   54.5630   34.2742 C   0  0  2  0  0  0  0  0  0  0  0  0
   46.8175   53.9871   30.6248 O   0  0  0  0  0  0  0  0  0  0  0  0
   48.5107   53.7936   38.8232 N   0  0  0  0  0  0  0  0  0  0  0  0
   49.0044   54.0658   37.5421 C   0  0  0  0  0  0  0  0  0  0  0  0
   48.0801   54.2447   36.4247 N   0  0  0  0  0  0  0  0  0  0  0  0
   46.7294   54.1484   36.6283 C   0  0  0  0  0  0  0  0  0  0  0  0
   46.2410   53.8723   37.9204 C   0  0  0  0  0  0  0  0  0  0  0  0
   47.1628   53.6934   39.0334 C   0  0  0  0  0  0  0  0  0  0  0  0
   46.6573   53.4074   40.3765 N   0  0  0  0  0  0  0  0  0  0  0  0
   44.8009   53.8244   37.8509 N   0  0  0  0  0  0  0  0  0  0  0  0
   44.4256   54.0705   36.5092 C   0  0  0  0  0  0  0  0  0  0  0  0
   45.6054   54.2755   35.7372 N   0  0  0  0  0  0  0  0  0  0  0  0
  2  1  1  6  0  0  0
  2  3  1  0  0  0  0
  2  5  1  0  0  0  0
  3  4  1  0  0  0  0
  3 17  1  0  0  0  0
  5  6  1  0  0  0  0
  7  6  1  1  0  0  0
  7  8  1  0  0  0  0
  7  9  1  0  0  0  0
 10  9  1  1  0  0  0
 10 11  1  0  0  0  0
 10 12  1  0  0  0  0
 11 16  1  0  0  0  0
 12 13  1  6  0  0  0
 12 14  1  0  0  0  0
 14 15  1  6  0  0  0
 14 16  1  0  0  0  0
 16 27  1  1  0  0  0
 18 19  2  0  0  0  0
 18 23  1  0  0  0  0
 19 20  1  0  0  0  0
 20 21  2  0  0  0  0
 21 22  1  0  0  0  0
 21 27  1  0  0  0  0
 22 23  2  0  0  0  0
 22 25  1  0  0  0  0
 23 24  1  0  0  0  0
 25 26  2  0  0  0  0
 26 27  1  0  0  0  0
M  END
>  <CHROM.1>
-32.89477595,51.51497707,61.99979123,-162.32706026,-67.87520316,77.38579480
-20.55026936,47.11419102,55.17621607,34.27002261,-1.33479359,-0.01973474
1.87600677

>  <Name>
ligand

>  <RI>
0

>  <Rbt.Current_Directory>
/home/itssahil/PROJECTS/Mol_Feturizer/New_Systems/rnas/3GX2

>  <Rbt.Executable>
rbdock ($Id: //depot/dev/client3/rdock/2013.1/src/exe/rbdock.cxx#4 $)

>  <Rbt.Library>
libRbt.so (2013.1, Build901 2013/11/27)

>  <Rbt.Parameter_File>
/export/apps/rDock/src/rDock_2013.1_src/data/scripts/dock_solv.prm

>  <Rbt.Receptor>
prm/pocket_docking_6.prm

>  <SCORE>
-13.1949

>  <SCORE.INTER>
-9.85571

>  <SCORE.INTER.CONST>
1

>  <SCORE.INTER.POLAR>
0

>  <SCORE.INTER.ROT>
7

>  <SCORE.INTER.SOLV>
14.1799

>  <SCORE.INTER.VDW>
-19.5638

>  <SCORE.INTER.norm>
-0.365026

>  <SCORE.INTRA>
-3.33915

>  <SCORE.INTRA.DIHEDRAL>
-6.94255

>  <SCORE.INTRA.DIHEDRAL.0>
13.9704

>  <SCORE.INTRA.POLAR>
0

>  <SCORE.INTRA.POLAR.0>
0

>  <SCORE.INTRA.REPUL>
0

>  <SCORE.INTRA.REPUL.0>
0

>  <SCORE.INTRA.SOLV>
1.74496

>  <SCORE.INTRA.SOLV.lig_0>
-70.9758

>  <SCORE.INTRA.VDW>
-0.740354

>  <SCORE.INTRA.VDW.0>
-2.70686

>  <SCORE.INTRA.norm>
-0.123672

>  <SCORE.RESTR>
0

>  <SCORE.RESTR.CAVITY>
0

>  <SCORE.RESTR.norm>
0

>  <SCORE.SYSTEM>
0

>  <SCORE.SYSTEM.CONST>
0

>  <SCORE.SYSTEM.DIHEDRAL>
0

>  <SCORE.SYSTEM.SOLV>
0

>  <SCORE.SYSTEM.norm>
0

>  <SCORE.heavy>
27

>  <SCORE.norm>
-0.488699

>  <RMSD>
6.307

$$$$
ligand
 OpenBabel11021811473D
libRbt.so/2013.1/901 2013/11/27
 27 29  0  0  0  0  0  0  0  0999 V2000
   43.3671   53.0708   31.5136 N   0  0  0  0  0  0  0  0  0  0  0  0
   43.6251   54.1009   32.5173 C   0  0  2  0  0  0  0  0  0  0  0  0
   43.6558   53.5757   33.9541 C   0  0  0  0  0  0  0  0  0  0  0  0
   44.5368   53.9222   34.6687 O   0  0  0  0  0  0  0  0  0  0  0  0
   42.7732   55.3780   32.3617 C   0  0  0  0  0  0  0  0  0  0  0  0
   42.9619   56.2735   31.1056 C   0  0  0  0  0  0  0  0  0  0  0  0
   44.3441   56.9668   30.9739 C   0  0  2  0  0  0  0  0  0  0  0  0
   45.4312   56.0238   30.7113 N   0  0  0  0  0  0  0  0  0  0  0  0
   44.6391   57.9241   32.1696 C   0  0  0  0  0  0  0  0  0  0  0  0
   46.0188   58.6636   32.2128 C   0  0  1  0  0  0  0  0  0  0  0  0
   47.2466   57.8765   32.2079 O   0  0  0  0  0  0  0  0  0  0  0  0
   46.2584   59.7649   31.1425 C   0  0  1  0  0  0  0  0  0  0  0  0
   45.4525   60.9487   31.2083 O   0  0  0  0  0  0  0  0  0  0  0  0
   47.8090   59.9032   31.0386 C   0  0  1  0  0  0  0  0  0  0  0  0
   48.4030   61.0778   31.5370 O   0  0  0  0  0  0  0  0  0  0  0  0
   48.3041   58.5480   31.5533 C   0  0  2  0  0  0  0  0  0  0  0  0
   42.4517   53.1215   34.5282 O   0  0  0  0  0  0  0  0  0  0  0  0
   48.2717   57.3287   26.2618 N   0  0  0  0  0  0  0  0  0  0  0  0
   47.4812   58.2764   26.9220 C   0  0  0  0  0  0  0  0  0  0  0  0
   47.6246   58.4727   28.3628 N   0  0  0  0  0  0  0  0  0  0  0  0
   48.5335   57.7317   29.0699 C   0  0  0  0  0  0  0  0  0  0  0  0
   49.3238   56.7788   28.3981 C   0  0  0  0  0  0  0  0  0  0  0  0
   49.1798   56.5831   26.9623 C   0  0  0  0  0  0  0  0  0  0  0  0
   50.0006   55.5942   26.2625 N   0  0  0  0  0  0  0  0  0  0  0  0
   50.1831   56.1483   29.3702 N   0  0  0  0  0  0  0  0  0  0  0  0
   49.9035   56.7254   30.6313 C   0  0  0  0  0  0  0  0  0  0  0  0
   48.8863   57.7093   30.4658 N   0  0  0  0  0  0  0  0  0  0  0  0
  2  1  1  6  0  0  0
  2  3  1  0  0  0  0
  2  5  1  0  0  0  0
  3  4  1  0  0  0  0
  3 17  1  0  0  0  0
  5  6  1  0  0  0  0
  7  6  1  1  0  0  0
  7  8  1  0  0  0  0
  7  9  1  0  0  0  0
 10  9  1  6  0  0  0
 10 11  1  0  0  0  0
 10 12  1  0  0  0  0
 11 16  1  0  0  0  0
 12 13  1  1  0  0  0
 12 14  1  0  0  0  0
 14 15  1  1  0  0  0
 14 16  1  0  0  0  0
 16 27  1  6  0  0  0
 18 19  2  0  0  0  0
 18 23  1  0  0  0  0
 19 20  1  0  0  0  0
 20 21  2  0  0  0  0
 21 22  1  0  0  0  0
 21 27  1  0  0  0  0
 22 23  2  0  0  0  0
 22 25  1  0  0  0  0
 23 24  1  0  0  0  0
 25 26  2  0  0  0  0
 26 27  1  0  0  0  0
M  END
>  <CHROM.1>
133.90213187,-65.18143833,-65.38803591,68.43280298,177.86523264,-57.97140454
94.21555628,46.47035263,56.97848001,30.76689823,-2.93897234,0.79729347,0.37159052

>  <Name>
ligand

>  <RI>
0

>  <Rbt.Current_Directory>
/home/itssahil/PROJECTS/Mol_Feturizer/New_Systems/rnas/3GX2

>  <Rbt.Executable>
rbdock ($Id: //depot/dev/client3/rdock/2013.1/src/exe/rbdock.cxx#4 $)

>  <Rbt.Library>
libRbt.so (2013.1, Build901 2013/11/27)

>  <Rbt.Parameter_File>
/export/apps/rDock/src/rDock_2013.1_src/data/scripts/dock_solv.prm

>  <Rbt.Receptor>
prm/pocket_docking_7.prm

>  <SCORE>
-13.2833

>  <SCORE.INTER>
-10.7745

>  <SCORE.INTER.CONST>
1

>  <SCORE.INTER.POLAR>
0

>  <SCORE.INTER.ROT>
7

>  <SCORE.INTER.SOLV>
12.7045

>  <SCORE.INTER.VDW>
-19.6845

>  <SCORE.INTER.norm>
-0.399054

>  <SCORE.INTRA>
-2.50882

>  <SCORE.INTRA.DIHEDRAL>
-8.57138

>  <SCORE.INTRA.DIHEDRAL.0>
13.9704

>  <SCORE.INTRA.POLAR>
0

>  <SCORE.INTRA.POLAR.0>
0

>  <SCORE.INTRA.REPUL>
0

>  <SCORE.INTRA.REPUL.0>
0

>  <SCORE.INTRA.SOLV>
4.49485

>  <SCORE.INTRA.SOLV.lig_0>
-70.9758

>  <SCORE.INTRA.VDW>
-0.470559

>  <SCORE.INTRA.VDW.0>
-2.70686

>  <SCORE.INTRA.norm>
-0.0929194

>  <SCORE.RESTR>
0

>  <SCORE.RESTR.CAVITY>
0

>  <SCORE.RESTR.norm>
0

>  <SCORE.SYSTEM>
0

>  <SCORE.SYSTEM.CONST>
0

>  <SCORE.SYSTEM.DIHEDRAL>
0

>  <SCORE.SYSTEM.SOLV>
0

>  <SCORE.SYSTEM.norm>
0

>  <SCORE.heavy>
27

>  <SCORE.norm>
-0.491974

>  <RMSD>
6.314

$$$$
ligand
 OpenBabel11021811483D
libRbt.so/2013.1/901 2013/11/27
 27 29  0  0  0  0  0  0  0  0999 V2000
   47.4348   56.5264   30.2092 N   0  0  0  0  0  0  0  0  0  0  0  0
   48.3883   57.2626   31.0361 C   0  0  2  0  0  0  0  0  0  0  0  0
   48.7892   58.6231   30.4618 C   0  0  0  0  0  0  0  0  0  0  0  0
   48.6833   58.8022   29.2941 O   0  0  0  0  0  0  0  0  0  0  0  0
   49.5971   56.4329   31.5172 C   0  0  0  0  0  0  0  0  0  0  0  0
   49.3648   55.2249   32.4670 C   0  0  0  0  0  0  0  0  0  0  0  0
   48.6792   55.5537   33.8198 C   0  0  2  0  0  0  0  0  0  0  0  0
   49.3893   56.5796   34.5836 N   0  0  0  0  0  0  0  0  0  0  0  0
   48.3750   54.2706   34.6530 C   0  0  0  0  0  0  0  0  0  0  0  0
   47.4183   54.3895   35.8871 C   0  0  1  0  0  0  0  0  0  0  0  0
   45.9992   54.6412   35.6635 O   0  0  0  0  0  0  0  0  0  0  0  0
   47.4495   53.2233   36.9142 C   0  0  1  0  0  0  0  0  0  0  0  0
   48.6501   53.0327   37.6740 O   0  0  0  0  0  0  0  0  0  0  0  0
   46.0803   53.2974   37.6583 C   0  0  1  0  0  0  0  0  0  0  0  0
   46.0804   53.7090   39.0042 O   0  0  0  0  0  0  0  0  0  0  0  0
   45.1917   54.0423   36.6571 C   0  0  2  0  0  0  0  0  0  0  0  0
   48.8008   59.7379   31.3237 O   0  0  0  0  0  0  0  0  0  0  0  0
   42.8283   52.3028   32.0881 N   0  0  0  0  0  0  0  0  0  0  0  0
   43.8656   53.2346   32.2086 C   0  0  0  0  0  0  0  0  0  0  0  0
   44.3825   53.5872   33.5290 N   0  0  0  0  0  0  0  0  0  0  0  0
   43.8548   53.0059   34.6510 C   0  0  0  0  0  0  0  0  0  0  0  0
   42.8098   52.0705   34.5209 C   0  0  0  0  0  0  0  0  0  0  0  0
   42.2946   51.7201   33.2048 C   0  0  0  0  0  0  0  0  0  0  0  0
   41.2096   50.7479   33.0676 N   0  0  0  0  0  0  0  0  0  0  0  0
   42.4465   51.6224   35.8431 N   0  0  0  0  0  0  0  0  0  0  0  0
   43.2772   52.2955   36.7697 C   0  0  0  0  0  0  0  0  0  0  0  0
   44.1572   53.1550   36.0509 N   0  0  0  0  0  0  0  0  0  0  0  0
  2  1  1  6  0  0  0
  2  3  1  0  0  0  0
  2  5  1  0  0  0  0
  3  4  1  0  0  0  0
  3 17  1  0  0  0  0
  5  6  1  0  0  0  0
  7  6  1  6  0  0  0
  7  8  1  0  0  0  0
  7  9  1  0  0  0  0
 10  9  1  6  0  0  0
 10 11  1  0  0  0  0
 10 12  1  0  0  0  0
 11 16  1  0  0  0  0
 12 13  1  1  0  0  0
 12 14  1  0  0  0  0
 14 15  1  1  0  0  0
 14 16  1  0  0  0  0
 16 27  1  6  0  0  0
 18 19  2  0  0  0  0
 18 23  1  0  0  0  0
 19 20  1  0  0  0  0
 20 21  2  0  0  0  0
 21 22  1  0  0  0  0
 21 27  1  0  0  0  0
 22 23  2  0  0  0  0
 22 25  1  0  0  0  0
 23 24  1  0  0  0  0
 25 26  2  0  0  0  0
 26 27  1  0  0  0  0
M  END
>  <CHROM.1>
-23.54671011,-63.90817214,-59.22256139,-55.70327204,-166.98204003,69.68075817
-7.26695785,46.22462534,54.49077504,34.10065115,0.78348497,-0.56278474,-1.17354782

>  <Name>
ligand

>  <RI>
0

>  <Rbt.Current_Directory>
/home/itssahil/PROJECTS/Mol_Feturizer/New_Systems/rnas/3GX2

>  <Rbt.Executable>
rbdock ($Id: //depot/dev/client3/rdock/2013.1/src/exe/rbdock.cxx#4 $)

>  <Rbt.Library>
libRbt.so (2013.1, Build901 2013/11/27)

>  <Rbt.Parameter_File>
/export/apps/rDock/src/rDock_2013.1_src/data/scripts/dock_solv.prm

>  <Rbt.Receptor>
prm/pocket_docking_8.prm

>  <SCORE>
-9.88379

>  <SCORE.INTER>
-6.71137

>  <SCORE.INTER.CONST>
1

>  <SCORE.INTER.POLAR>
0

>  <SCORE.INTER.ROT>
7

>  <SCORE.INTER.SOLV>
15.8818

>  <SCORE.INTER.VDW>
-18.0348

>  <SCORE.INTER.norm>
-0.248569

>  <SCORE.INTRA>
-3.17242

>  <SCORE.INTRA.DIHEDRAL>
-8.35927

>  <SCORE.INTRA.DIHEDRAL.0>
13.9704

>  <SCORE.INTRA.POLAR>
0

>  <SCORE.INTRA.POLAR.0>
0

>  <SCORE.INTRA.REPUL>
0

>  <SCORE.INTRA.REPUL.0>
0

>  <SCORE.INTRA.SOLV>
1.69605

>  <SCORE.INTRA.SOLV.lig_0>
-70.9758

>  <SCORE.INTRA.VDW>
0.159187

>  <SCORE.INTRA.VDW.0>
-2.70686

>  <SCORE.INTRA.norm>
-0.117497

>  <SCORE.RESTR>
0

>  <SCORE.RESTR.CAVITY>
0

>  <SCORE.RESTR.norm>
0

>  <SCORE.SYSTEM>
0

>  <SCORE.SYSTEM.CONST>
0

>  <SCORE.SYSTEM.DIHEDRAL>
0

>  <SCORE.SYSTEM.SOLV>
0

>  <SCORE.SYSTEM.norm>
0

>  <SCORE.heavy>
27

>  <SCORE.norm>
-0.366066

>  <RMSD>
6.315

$$$$
ligand
 OpenBabel11021811473D
libRbt.so/2013.1/901 2013/11/27
 27 29  0  0  0  0  0  0  0  0999 V2000
   48.8573   53.7932   32.8471 N   0  0  0  0  0  0  0  0  0  0  0  0
   49.2958   54.9745   32.1074 C   0  0  2  0  0  0  0  0  0  0  0  0
   49.9340   54.6591   30.7530 C   0  0  0  0  0  0  0  0  0  0  0  0
   50.2835   55.5593   30.0643 O   0  0  0  0  0  0  0  0  0  0  0  0
   50.1143   55.9857   32.9372 C   0  0  0  0  0  0  0  0  0  0  0  0
   49.3874   57.1742   33.6260 C   0  0  0  0  0  0  0  0  0  0  0  0
   48.6695   58.1677   32.6742 C   0  0  2  0  0  0  0  0  0  0  0  0
   49.2543   59.5083   32.7041 N   0  0  0  0  0  0  0  0  0  0  0  0
   47.1235   58.1691   32.8816 C   0  0  0  0  0  0  0  0  0  0  0  0
   46.3436   56.8230   32.7024 C   0  0  1  0  0  0  0  0  0  0  0  0
   46.8128   55.6322   33.4018 O   0  0  0  0  0  0  0  0  0  0  0  0
   44.8137   56.8567   32.9750 C   0  0  1  0  0  0  0  0  0  0  0  0
   43.9923   57.6245   32.0856 O   0  0  0  0  0  0  0  0  0  0  0  0
   44.4222   55.3798   33.2901 C   0  0  1  0  0  0  0  0  0  0  0  0
   43.6482   54.6842   32.3425 O   0  0  0  0  0  0  0  0  0  0  0  0
   45.7492   54.7699   33.7526 C   0  0  2  0  0  0  0  0  0  0  0  0
   50.5207   53.3915   30.5669 O   0  0  0  0  0  0  0  0  0  0  0  0
   48.7224   54.3224   38.2745 N   0  0  0  0  0  0  0  0  0  0  0  0
   49.1692   54.6590   36.9916 C   0  0  0  0  0  0  0  0  0  0  0  0
   48.2209   54.7326   35.8824 N   0  0  0  0  0  0  0  0  0  0  0  0
   46.8931   54.4743   36.0956 C   0  0  0  0  0  0  0  0  0  0  0  0
   46.4520   54.1344   37.3895 C   0  0  0  0  0  0  0  0  0  0  0  0
   47.3979   54.0606   38.4942 C   0  0  0  0  0  0  0  0  0  0  0  0
   46.9414   53.7086   39.8393 N   0  0  0  0  0  0  0  0  0  0  0  0
   45.0275   53.9151   37.3307 N   0  0  0  0  0  0  0  0  0  0  0  0
   44.6143   54.1223   35.9936 C   0  0  0  0  0  0  0  0  0  0  0  0
   45.7547   54.4712   35.2139 N   0  0  0  0  0  0  0  0  0  0  0  0
  2  1  1  1  0  0  0
  2  3  1  0  0  0  0
  2  5  1  0  0  0  0
  3  4  1  0  0  0  0
  3 17  1  0  0  0  0
  5  6  1  0  0  0  0
  7  6  1  1  0  0  0
  7  8  1  0  0  0  0
  7  9  1  0  0  0  0
 10  9  1  1  0  0  0
 10 11  1  0  0  0  0
 10 12  1  0  0  0  0
 11 16  1  0  0  0  0
 12 13  1  6  0  0  0
 12 14  1  0  0  0  0
 14 15  1  6  0  0  0
 14 16  1  0  0  0  0
 16 27  1  1  0  0  0
 18 19  2  0  0  0  0
 18 23  1  0  0  0  0
 19 20  1  0  0  0  0
 20 21  2  0  0  0  0
 21 22  1  0  0  0  0
 21 27  1  0  0  0  0
 22 23  2  0  0  0  0
 22 25  1  0  0  0  0
 23 24  1  0  0  0  0
 25 26  2  0  0  0  0
 26 27  1  0  0  0  0
M  END
>  <CHROM.1>
177.75206419,-93.53061114,-61.94611436,-115.24376581,-58.08774416,50.48833415
-27.02753450,47.35880756,55.41757139,34.08022531,-1.19886249,-0.16260202
1.95573079

>  <Name>
ligand

>  <RI>
0

>  <Rbt.Current_Directory>
/home/itssahil/PROJECTS/Mol_Feturizer/New_Systems/rnas/3GX2

>  <Rbt.Executable>
rbdock ($Id: //depot/dev/client3/rdock/2013.1/src/exe/rbdock.cxx#4 $)

>  <Rbt.Library>
libRbt.so (2013.1, Build901 2013/11/27)

>  <Rbt.Parameter_File>
/export/apps/rDock/src/rDock_2013.1_src/data/scripts/dock_solv.prm

>  <Rbt.Receptor>
prm/pocket_docking_7.prm

>  <SCORE>
-12.6524

>  <SCORE.INTER>
-12.6976

>  <SCORE.INTER.CONST>
1

>  <SCORE.INTER.POLAR>
0

>  <SCORE.INTER.ROT>
7

>  <SCORE.INTER.SOLV>
16.3489

>  <SCORE.INTER.VDW>
-22.1814

>  <SCORE.INTER.norm>
-0.470281

>  <SCORE.INTRA>
0.0308945

>  <SCORE.INTRA.DIHEDRAL>
-0.714546

>  <SCORE.INTRA.DIHEDRAL.0>
13.9704

>  <SCORE.INTRA.POLAR>
0

>  <SCORE.INTRA.POLAR.0>
0

>  <SCORE.INTRA.REPUL>
0

>  <SCORE.INTRA.REPUL.0>
0

>  <SCORE.INTRA.SOLV>
2.72196

>  <SCORE.INTRA.SOLV.lig_0>
-70.9758

>  <SCORE.INTRA.VDW>
-0.972811

>  <SCORE.INTRA.VDW.0>
-2.70686

>  <SCORE.INTRA.norm>
0.00114424

>  <SCORE.RESTR>
0.0142797

>  <SCORE.RESTR.CAVITY>
0.0142797

>  <SCORE.RESTR.norm>
0.000528877

>  <SCORE.SYSTEM>
0

>  <SCORE.SYSTEM.CONST>
0

>  <SCORE.SYSTEM.DIHEDRAL>
0

>  <SCORE.SYSTEM.SOLV>
0

>  <SCORE.SYSTEM.norm>
0

>  <SCORE.heavy>
27

>  <SCORE.norm>
-0.468608

>  <RMSD>
6.318

$$$$
ligand
 OpenBabel11021811473D
libRbt.so/2013.1/901 2013/11/27
 27 29  0  0  0  0  0  0  0  0999 V2000
   44.7948   54.1390   32.5490 N   0  0  0  0  0  0  0  0  0  0  0  0
   45.7617   53.4620   33.4104 C   0  0  2  0  0  0  0  0  0  0  0  0
   45.2568   53.2072   34.8322 C   0  0  0  0  0  0  0  0  0  0  0  0
   45.9736   52.6583   35.6015 O   0  0  0  0  0  0  0  0  0  0  0  0
   47.1837   54.0600   33.3750 C   0  0  0  0  0  0  0  0  0  0  0  0
   47.3927   55.5556   33.7422 C   0  0  0  0  0  0  0  0  0  0  0  0
   48.8598   56.0599   33.7044 C   0  0  2  0  0  0  0  0  0  0  0  0
   49.7415   55.3144   34.6026 N   0  0  0  0  0  0  0  0  0  0  0  0
   48.9565   57.6052   33.8946 C   0  0  0  0  0  0  0  0  0  0  0  0
   48.5363   58.5328   32.7049 C   0  0  1  0  0  0  0  0  0  0  0  0
   49.4306   58.6690   31.5608 O   0  0  0  0  0  0  0  0  0  0  0  0
   47.1373   58.2787   32.0771 C   0  0  1  0  0  0  0  0  0  0  0  0
   45.9832   58.5414   32.8859 O   0  0  0  0  0  0  0  0  0  0  0  0
   47.2168   58.8862   30.6423 C   0  0  1  0  0  0  0  0  0  0  0  0
   46.4786   60.0547   30.3771 O   0  0  0  0  0  0  0  0  0  0  0  0
   48.7218   58.8811   30.3564 C   0  0  2  0  0  0  0  0  0  0  0  0
   44.2155   54.0161   35.3292 O   0  0  0  0  0  0  0  0  0  0  0  0
   50.6577   53.9032   29.3766 N   0  0  0  0  0  0  0  0  0  0  0  0
   50.4453   54.5041   30.6227 C   0  0  0  0  0  0  0  0  0  0  0  0
   49.9138   55.8631   30.6985 N   0  0  0  0  0  0  0  0  0  0  0  0
   49.6208   56.5510   29.5513 C   0  0  0  0  0  0  0  0  0  0  0  0
   49.8393   55.9396   28.3013 C   0  0  0  0  0  0  0  0  0  0  0  0
   50.3697   54.5855   28.2265 C   0  0  0  0  0  0  0  0  0  0  0  0
   50.5964   53.9483   26.9289 N   0  0  0  0  0  0  0  0  0  0  0  0
   49.4523   56.8758   27.2743 N   0  0  0  0  0  0  0  0  0  0  0  0
   49.0023   58.0550   27.9134 C   0  0  0  0  0  0  0  0  0  0  0  0
   49.0970   57.8728   29.3233 N   0  0  0  0  0  0  0  0  0  0  0  0
  2  1  1  1  0  0  0
  2  3  1  0  0  0  0
  2  5  1  0  0  0  0
  3  4  1  0  0  0  0
  3 17  1  0  0  0  0
  5  6  1  0  0  0  0
  7  6  1  1  0  0  0
  7  8  1  0  0  0  0
  7  9  1  0  0  0  0
 10  9  1  1  0  0  0
 10 11  1  0  0  0  0
 10 12  1  0  0  0  0
 11 16  1  0  0  0  0
 12 13  1  1  0  0  0
 12 14  1  0  0  0  0
 14 15  1  1  0  0  0
 14 16  1  0  0  0  0
 16 27  1  6  0  0  0
 18 19  2  0  0  0  0
 18 23  1  0  0  0  0
 19 20  1  0  0  0  0
 20 21  2  0  0  0  0
 21 22  1  0  0  0  0
 21 27  1  0  0  0  0
 22 23  2  0  0  0  0
 22 25  1  0  0  0  0
 23 24  1  0  0  0  0
 25 26  2  0  0  0  0
 26 27  1  0  0  0  0
M  END
>  <CHROM.1>
179.77780759,57.75183460,178.88058197,-58.52088228,-74.09567652,-75.07804064
25.13303168,48.09447325,56.16058453,31.57062596,-2.60858288,0.94443481,-0.22139015

>  <Name>
ligand

>  <RI>
0

>  <Rbt.Current_Directory>
/home/itssahil/PROJECTS/Mol_Feturizer/New_Systems/rnas/3GX2

>  <Rbt.Executable>
rbdock ($Id: //depot/dev/client3/rdock/2013.1/src/exe/rbdock.cxx#4 $)

>  <Rbt.Library>
libRbt.so (2013.1, Build901 2013/11/27)

>  <Rbt.Parameter_File>
/export/apps/rDock/src/rDock_2013.1_src/data/scripts/dock_solv.prm

>  <Rbt.Receptor>
prm/pocket_docking_5.prm

>  <SCORE>
-14.3386

>  <SCORE.INTER>
-9.98698

>  <SCORE.INTER.CONST>
1

>  <SCORE.INTER.POLAR>
0

>  <SCORE.INTER.ROT>
7

>  <SCORE.INTER.SOLV>
11.6206

>  <SCORE.INTER.VDW>
-18.7982

>  <SCORE.INTER.norm>
-0.369888

>  <SCORE.INTRA>
-4.35161

>  <SCORE.INTRA.DIHEDRAL>
-7.96222

>  <SCORE.INTRA.DIHEDRAL.0>
13.9704

>  <SCORE.INTRA.POLAR>
0

>  <SCORE.INTRA.POLAR.0>
0

>  <SCORE.INTRA.REPUL>
0

>  <SCORE.INTRA.REPUL.0>
0

>  <SCORE.INTRA.SOLV>
0.673732

>  <SCORE.INTRA.SOLV.lig_0>
-70.9758

>  <SCORE.INTRA.VDW>
-0.707361

>  <SCORE.INTRA.VDW.0>
-2.70686

>  <SCORE.INTRA.norm>
-0.161171

>  <SCORE.RESTR>
0

>  <SCORE.RESTR.CAVITY>
0

>  <SCORE.RESTR.norm>
0

>  <SCORE.SYSTEM>
0

>  <SCORE.SYSTEM.CONST>
0

>  <SCORE.SYSTEM.DIHEDRAL>
0

>  <SCORE.SYSTEM.SOLV>
0

>  <SCORE.SYSTEM.norm>
0

>  <SCORE.heavy>
27

>  <SCORE.norm>
-0.531059

>  <RMSD>
6.324

$$$$
ligand
 OpenBabel11021811473D
libRbt.so/2013.1/901 2013/11/27
 27 29  0  0  0  0  0  0  0  0999 V2000
   48.5966   54.0498   32.4525 N   0  0  0  0  0  0  0  0  0  0  0  0
   49.1794   54.5461   33.6971 C   0  0  2  0  0  0  0  0  0  0  0  0
   48.3705   54.1933   34.9471 C   0  0  0  0  0  0  0  0  0  0  0  0
   47.9955   53.0767   35.0867 O   0  0  0  0  0  0  0  0  0  0  0  0
   49.6126   56.0267   33.6588 C   0  0  0  0  0  0  0  0  0  0  0  0
   48.5292   57.1372   33.5696 C   0  0  0  0  0  0  0  0  0  0  0  0
   49.0031   58.4956   32.9877 C   0  0  2  0  0  0  0  0  0  0  0  0
   50.1150   59.0795   33.7379 N   0  0  0  0  0  0  0  0  0  0  0  0
   47.8201   59.4894   32.7733 C   0  0  0  0  0  0  0  0  0  0  0  0
   46.6696   59.0820   31.7921 C   0  0  1  0  0  0  0  0  0  0  0  0
   46.9501   59.0029   30.3630 O   0  0  0  0  0  0  0  0  0  0  0  0
   45.9074   57.7657   32.1124 C   0  0  1  0  0  0  0  0  0  0  0  0
   45.1091   57.7274   33.3025 O   0  0  0  0  0  0  0  0  0  0  0  0
   45.2773   57.3184   30.7571 C   0  0  1  0  0  0  0  0  0  0  0  0
   43.8797   57.4077   30.6161 O   0  0  0  0  0  0  0  0  0  0  0  0
   46.1708   58.0119   29.7239 C   0  0  2  0  0  0  0  0  0  0  0  0
   48.4999   55.0156   36.0840 O   0  0  0  0  0  0  0  0  0  0  0  0
   50.6420   54.9314   29.8024 N   0  0  0  0  0  0  0  0  0  0  0  0
   50.1648   55.7655   30.8200 C   0  0  0  0  0  0  0  0  0  0  0  0
   48.9341   56.5282   30.6238 N   0  0  0  0  0  0  0  0  0  0  0  0
   48.2440   56.4275   29.4453 C   0  0  0  0  0  0  0  0  0  0  0  0
   48.7321   55.5872   28.4257 C   0  0  0  0  0  0  0  0  0  0  0  0
   49.9592   54.8280   28.6216 C   0  0  0  0  0  0  0  0  0  0  0  0
   50.4674   53.9537   27.5639 N   0  0  0  0  0  0  0  0  0  0  0  0
   47.8241   55.6701   27.3079 N   0  0  0  0  0  0  0  0  0  0  0  0
   46.7882   56.5671   27.6597 C   0  0  0  0  0  0  0  0  0  0  0  0
   47.0293   57.0452   28.9801 N   0  0  0  0  0  0  0  0  0  0  0  0
  2  1  1  6  0  0  0
  2  3  1  0  0  0  0
  2  5  1  0  0  0  0
  3  4  1  0  0  0  0
  3 17  1  0  0  0  0
  5  6  1  0  0  0  0
  7  6  1  1  0  0  0
  7  8  1  0  0  0  0
  7  9  1  0  0  0  0
 10  9  1  1  0  0  0
 10 11  1  0  0  0  0
 10 12  1  0  0  0  0
 11 16  1  0  0  0  0
 12 13  1  1  0  0  0
 12 14  1  0  0  0  0
 14 15  1  1  0  0  0
 14 16  1  0  0  0  0
 16 27  1  1  0  0  0
 18 19  2  0  0  0  0
 18 23  1  0  0  0  0
 19 20  1  0  0  0  0
 20 21  2  0  0  0  0
 21 22  1  0  0  0  0
 21 27  1  0  0  0  0
 22 23  2  0  0  0  0
 22 25  1  0  0  0  0
 23 24  1  0  0  0  0
 25 26  2  0  0  0  0
 26 27  1  0  0  0  0
M  END
>  <CHROM.1>
47.54420605,68.58592598,-156.87016071,-57.73035799,-60.75428738,-68.75128469
44.69143808,47.97078895,56.47713122,31.46029985,-1.42750087,0.81150165,-1.56622635

>  <Name>
ligand

>  <RI>
0

>  <Rbt.Current_Directory>
/home/itssahil/PROJECTS/Mol_Feturizer/New_Systems/rnas/3GX2

>  <Rbt.Executable>
rbdock ($Id: //depot/dev/client3/rdock/2013.1/src/exe/rbdock.cxx#4 $)

>  <Rbt.Library>
libRbt.so (2013.1, Build901 2013/11/27)

>  <Rbt.Parameter_File>
/export/apps/rDock/src/rDock_2013.1_src/data/scripts/dock_solv.prm

>  <Rbt.Receptor>
prm/pocket_docking_2.prm

>  <SCORE>
-6.18201

>  <SCORE.INTER>
-5.17551

>  <SCORE.INTER.CONST>
1

>  <SCORE.INTER.POLAR>
0

>  <SCORE.INTER.ROT>
7

>  <SCORE.INTER.SOLV>
15.0396

>  <SCORE.INTER.VDW>
-16.7302

>  <SCORE.INTER.norm>
-0.191686

>  <SCORE.INTRA>
-2.82511

>  <SCORE.INTRA.DIHEDRAL>
-6.83427

>  <SCORE.INTRA.DIHEDRAL.0>
13.9704

>  <SCORE.INTRA.POLAR>
0

>  <SCORE.INTRA.POLAR.0>
0

>  <SCORE.INTRA.REPUL>
0

>  <SCORE.INTRA.REPUL.0>
0

>  <SCORE.INTRA.SOLV>
1.90613

>  <SCORE.INTRA.SOLV.lig_0>
-70.9758

>  <SCORE.INTRA.VDW>
-0.36104

>  <SCORE.INTRA.VDW.0>
-2.70686

>  <SCORE.INTRA.norm>
-0.104634

>  <SCORE.RESTR>
1.81861

>  <SCORE.RESTR.CAVITY>
1.81861

>  <SCORE.RESTR.norm>
0.067356

>  <SCORE.SYSTEM>
0

>  <SCORE.SYSTEM.CONST>
0

>  <SCORE.SYSTEM.DIHEDRAL>
0

>  <SCORE.SYSTEM.SOLV>
0

>  <SCORE.SYSTEM.norm>
0

>  <SCORE.heavy>
27

>  <SCORE.norm>
-0.228963

>  <RMSD>
6.336

$$$$
ligand
 OpenBabel11021811473D
libRbt.so/2013.1/901 2013/11/27
 27 29  0  0  0  0  0  0  0  0999 V2000
   44.4630   55.0620   33.0648 N   0  0  0  0  0  0  0  0  0  0  0  0
   45.3572   54.3498   33.9749 C   0  0  2  0  0  0  0  0  0  0  0  0
   44.6641   53.7970   35.2221 C   0  0  0  0  0  0  0  0  0  0  0  0
   44.9899   52.7320   35.6302 O   0  0  0  0  0  0  0  0  0  0  0  0
   46.6718   55.0912   34.2960 C   0  0  0  0  0  0  0  0  0  0  0  0
   47.7083   55.3331   33.1636 C   0  0  0  0  0  0  0  0  0  0  0  0
   49.0323   56.0169   33.5970 C   0  0  2  0  0  0  0  0  0  0  0  0
   49.7400   55.2767   34.6417 N   0  0  0  0  0  0  0  0  0  0  0  0
   48.8306   57.5243   33.9440 C   0  0  0  0  0  0  0  0  0  0  0  0
   48.4401   58.5110   32.7923 C   0  0  1  0  0  0  0  0  0  0  0  0
   49.3439   58.6727   31.6591 O   0  0  0  0  0  0  0  0  0  0  0  0
   47.0389   58.3182   32.1480 C   0  0  1  0  0  0  0  0  0  0  0  0
   45.8870   58.5754   32.9618 O   0  0  0  0  0  0  0  0  0  0  0  0
   47.1415   58.9830   30.7403 C   0  0  1  0  0  0  0  0  0  0  0  0
   46.4337   60.1796   30.5209 O   0  0  0  0  0  0  0  0  0  0  0  0
   48.6475   58.9526   30.4614 C   0  0  2  0  0  0  0  0  0  0  0  0
   44.0482   54.7058   36.1056 O   0  0  0  0  0  0  0  0  0  0  0  0
   50.5533   54.0066   29.2816 N   0  0  0  0  0  0  0  0  0  0  0  0
   50.3621   54.5649   30.5507 C   0  0  0  0  0  0  0  0  0  0  0  0
   49.8359   55.9217   30.6813 N   0  0  0  0  0  0  0  0  0  0  0  0
   49.5269   56.6493   29.5630 C   0  0  0  0  0  0  0  0  0  0  0  0
   49.7241   56.0805   28.2896 C   0  0  0  0  0  0  0  0  0  0  0  0
   50.2494   54.7285   28.1602 C   0  0  0  0  0  0  0  0  0  0  0  0
   50.4540   54.1356   26.8381 N   0  0  0  0  0  0  0  0  0  0  0  0
   49.3240   57.0523   27.3014 N   0  0  0  0  0  0  0  0  0  0  0  0
   48.8874   58.2100   27.9875 C   0  0  0  0  0  0  0  0  0  0  0  0
   49.0036   57.9794   29.3886 N   0  0  0  0  0  0  0  0  0  0  0  0
  2  1  1  1  0  0  0
  2  3  1  0  0  0  0
  2  5  1  0  0  0  0
  3  4  1  0  0  0  0
  3 17  1  0  0  0  0
  5  6  1  0  0  0  0
  7  6  1  1  0  0  0
  7  8  1  0  0  0  0
  7  9  1  0  0  0  0
 10  9  1  6  0  0  0
 10 11  1  0  0  0  0
 10 12  1  0  0  0  0
 11 16  1  0  0  0  0
 12 13  1  1  0  0  0
 12 14  1  0  0  0  0
 14 15  1  1  0  0  0
 14 16  1  0  0  0  0
 16 27  1  6  0  0  0
 18 19  2  0  0  0  0
 18 23  1  0  0  0  0
 19 20  1  0  0  0  0
 20 21  2  0  0  0  0
 21 22  1  0  0  0  0
 21 27  1  0  0  0  0
 22 23  2  0  0  0  0
 22 25  1  0  0  0  0
 23 24  1  0  0  0  0
 25 26  2  0  0  0  0
 26 27  1  0  0  0  0
M  END
>  <CHROM.1>
141.22403848,-65.65095595,-176.77583257,57.53533289,-66.78101540,-60.46561329
23.34061205,47.93165726,56.36140290,31.69087967,-2.65460792,0.91117481,-0.29829331

>  <Name>
ligand

>  <RI>
0

>  <Rbt.Current_Directory>
/home/itssahil/PROJECTS/Mol_Feturizer/New_Systems/rnas/3GX2

>  <Rbt.Executable>
rbdock ($Id: //depot/dev/client3/rdock/2013.1/src/exe/rbdock.cxx#4 $)

>  <Rbt.Library>
libRbt.so (2013.1, Build901 2013/11/27)

>  <Rbt.Parameter_File>
/export/apps/rDock/src/rDock_2013.1_src/data/scripts/dock_solv.prm

>  <Rbt.Receptor>
prm/pocket_docking_5.prm

>  <SCORE>
-14.546

>  <SCORE.INTER>
-9.60938

>  <SCORE.INTER.CONST>
1

>  <SCORE.INTER.POLAR>
0

>  <SCORE.INTER.ROT>
7

>  <SCORE.INTER.SOLV>
11.9995

>  <SCORE.INTER.VDW>
-18.6728

>  <SCORE.INTER.norm>
-0.355903

>  <SCORE.INTRA>
-4.93661

>  <SCORE.INTRA.DIHEDRAL>
-8.67282

>  <SCORE.INTRA.DIHEDRAL.0>
13.9704

>  <SCORE.INTRA.POLAR>
0

>  <SCORE.INTRA.POLAR.0>
0

>  <SCORE.INTRA.REPUL>
0

>  <SCORE.INTRA.REPUL.0>
0

>  <SCORE.INTRA.SOLV>
0.965479

>  <SCORE.INTRA.SOLV.lig_0>
-70.9758

>  <SCORE.INTRA.VDW>
-1.08294

>  <SCORE.INTRA.VDW.0>
-2.70686

>  <SCORE.INTRA.norm>
-0.182837

>  <SCORE.RESTR>
0

>  <SCORE.RESTR.CAVITY>
0

>  <SCORE.RESTR.norm>
0

>  <SCORE.SYSTEM>
0

>  <SCORE.SYSTEM.CONST>
0

>  <SCORE.SYSTEM.DIHEDRAL>
0

>  <SCORE.SYSTEM.SOLV>
0

>  <SCORE.SYSTEM.norm>
0

>  <SCORE.heavy>
27

>  <SCORE.norm>
-0.538741

>  <RMSD>
6.341

$$$$
ligand
 OpenBabel11021811473D
libRbt.so/2013.1/901 2013/11/27
 27 29  0  0  0  0  0  0  0  0999 V2000
   50.3396   55.7067   27.8826 N   0  0  0  0  0  0  0  0  0  0  0  0
   50.2610   55.3311   29.2924 C   0  0  2  0  0  0  0  0  0  0  0  0
   49.3886   54.1032   29.5615 C   0  0  0  0  0  0  0  0  0  0  0  0
   48.2907   54.0751   29.1135 O   0  0  0  0  0  0  0  0  0  0  0  0
   49.9659   56.5012   30.2542 C   0  0  0  0  0  0  0  0  0  0  0  0
   48.7309   57.4087   29.9964 C   0  0  0  0  0  0  0  0  0  0  0  0
   48.4044   58.4353   31.1135 C   0  0  2  0  0  0  0  0  0  0  0  0
   48.1298   57.8042   32.4043 N   0  0  0  0  0  0  0  0  0  0  0  0
   47.2994   59.4470   30.6789 C   0  0  0  0  0  0  0  0  0  0  0  0
   46.0810   58.9141   29.8519 C   0  0  1  0  0  0  0  0  0  0  0  0
   46.2179   58.7548   28.4086 O   0  0  0  0  0  0  0  0  0  0  0  0
   45.4360   57.5835   30.3308 C   0  0  1  0  0  0  0  0  0  0  0  0
   44.7675   57.5823   31.5989 O   0  0  0  0  0  0  0  0  0  0  0  0
   44.6984   57.0136   29.0797 C   0  0  1  0  0  0  0  0  0  0  0  0
   43.2909   57.0187   29.0826 O   0  0  0  0  0  0  0  0  0  0  0  0
   45.4382   57.6831   27.9173 C   0  0  2  0  0  0  0  0  0  0  0  0
   50.0231   52.8876   29.8861 O   0  0  0  0  0  0  0  0  0  0  0  0
   46.6125   52.4678   26.9641 N   0  0  0  0  0  0  0  0  0  0  0  0
   45.6639   52.9773   27.8583 C   0  0  0  0  0  0  0  0  0  0  0  0
   45.4809   54.4212   27.9865 N   0  0  0  0  0  0  0  0  0  0  0  0
   46.2353   55.2790   27.2313 C   0  0  0  0  0  0  0  0  0  0  0  0
   47.1890   54.7580   26.3352 C   0  0  0  0  0  0  0  0  0  0  0  0
   47.3714   53.3189   26.2085 C   0  0  0  0  0  0  0  0  0  0  0  0
   48.3611   52.7757   25.2774 N   0  0  0  0  0  0  0  0  0  0  0  0
   47.8347   55.8679   25.6778 N   0  0  0  0  0  0  0  0  0  0  0  0
   47.2660   57.0597   26.1853 C   0  0  0  0  0  0  0  0  0  0  0  0
   46.2724   56.7160   27.1469 N   0  0  0  0  0  0  0  0  0  0  0  0
  2  1  1  6  0  0  0
  2  3  1  0  0  0  0
  2  5  1  0  0  0  0
  3  4  1  0  0  0  0
  3 17  1  0  0  0  0
  5  6  1  0  0  0  0
  7  6  1  6  0  0  0
  7  8  1  0  0  0  0
  7  9  1  0  0  0  0
 10  9  1  1  0  0  0
 10 11  1  0  0  0  0
 10 12  1  0  0  0  0
 11 16  1  0  0  0  0
 12 13  1  1  0  0  0
 12 14  1  0  0  0  0
 14 15  1  1  0  0  0
 14 16  1  0  0  0  0
 16 27  1  1  0  0  0
 18 19  2  0  0  0  0
 18 23  1  0  0  0  0
 19 20  1  0  0  0  0
 20 21  2  0  0  0  0
 21 22  1  0  0  0  0
 21 27  1  0  0  0  0
 22 23  2  0  0  0  0
 22 25  1  0  0  0  0
 23 24  1  0  0  0  0
 25 26  2  0  0  0  0
 26 27  1  0  0  0  0
M  END
>  <CHROM.1>
-51.03702308,53.38762281,172.10823156,-59.74916449,40.15066433,-82.95649981
135.66222804,47.22053543,56.01463655,28.70088729,-1.23432391,-0.40962748
0.75667702

>  <Name>
ligand

>  <RI>
0

>  <Rbt.Current_Directory>
/home/itssahil/PROJECTS/Mol_Feturizer/New_Systems/rnas/3GX2

>  <Rbt.Executable>
rbdock ($Id: //depot/dev/client3/rdock/2013.1/src/exe/rbdock.cxx#4 $)

>  <Rbt.Library>
libRbt.so (2013.1, Build901 2013/11/27)

>  <Rbt.Parameter_File>
/export/apps/rDock/src/rDock_2013.1_src/data/scripts/dock_solv.prm

>  <Rbt.Receptor>
prm/pocket_docking_6.prm

>  <SCORE>
-8.66314

>  <SCORE.INTER>
-5.46566

>  <SCORE.INTER.CONST>
1

>  <SCORE.INTER.POLAR>
0

>  <SCORE.INTER.ROT>
7

>  <SCORE.INTER.SOLV>
11.7581

>  <SCORE.INTER.VDW>
-15.8298

>  <SCORE.INTER.norm>
-0.202432

>  <SCORE.INTRA>
-3.19748

>  <SCORE.INTRA.DIHEDRAL>
-6.08327

>  <SCORE.INTRA.DIHEDRAL.0>
13.9704

>  <SCORE.INTRA.POLAR>
0

>  <SCORE.INTRA.POLAR.0>
0

>  <SCORE.INTRA.REPUL>
0

>  <SCORE.INTRA.REPUL.0>
0

>  <SCORE.INTRA.SOLV>
3.82057

>  <SCORE.INTRA.SOLV.lig_0>
-70.9758

>  <SCORE.INTRA.VDW>
-2.06613

>  <SCORE.INTRA.VDW.0>
-2.70686

>  <SCORE.INTRA.norm>
-0.118425

>  <SCORE.RESTR>
0

>  <SCORE.RESTR.CAVITY>
0

>  <SCORE.RESTR.norm>
0

>  <SCORE.SYSTEM>
0

>  <SCORE.SYSTEM.CONST>
0

>  <SCORE.SYSTEM.DIHEDRAL>
0

>  <SCORE.SYSTEM.SOLV>
0

>  <SCORE.SYSTEM.norm>
0

>  <SCORE.heavy>
27

>  <SCORE.norm>
-0.320857

>  <RMSD>
6.347

$$$$
ligand
 OpenBabel11021811473D
libRbt.so/2013.1/901 2013/11/27
 27 29  0  0  0  0  0  0  0  0999 V2000
   49.1022   58.3790   30.9308 N   0  0  0  0  0  0  0  0  0  0  0  0
   48.0505   59.3840   30.7930 C   0  0  2  0  0  0  0  0  0  0  0  0
   48.0916   60.4782   31.8618 C   0  0  0  0  0  0  0  0  0  0  0  0
   48.9533   60.4469   32.6763 O   0  0  0  0  0  0  0  0  0  0  0  0
   46.6354   58.8083   30.5756 C   0  0  0  0  0  0  0  0  0  0  0  0
   45.8562   58.2200   31.7847 C   0  0  0  0  0  0  0  0  0  0  0  0
   44.6642   57.2915   31.4306 C   0  0  2  0  0  0  0  0  0  0  0  0
   43.8325   56.9658   32.5891 N   0  0  0  0  0  0  0  0  0  0  0  0
   45.1164   56.0327   30.6279 C   0  0  0  0  0  0  0  0  0  0  0  0
   45.8213   54.8668   31.4000 C   0  0  1  0  0  0  0  0  0  0  0  0
   46.1270   53.6291   30.6916 O   0  0  0  0  0  0  0  0  0  0  0  0
   47.1342   55.2177   32.1544 C   0  0  1  0  0  0  0  0  0  0  0  0
   47.0446   56.1064   33.2757 O   0  0  0  0  0  0  0  0  0  0  0  0
   47.8880   53.8613   32.3152 C   0  0  1  0  0  0  0  0  0  0  0  0
   47.9825   53.3061   33.6051 O   0  0  0  0  0  0  0  0  0  0  0  0
   47.2984   53.0112   31.1854 C   0  0  2  0  0  0  0  0  0  0  0  0
   47.4557   61.7059   31.5898 O   0  0  0  0  0  0  0  0  0  0  0  0
   48.0364   51.8326   25.9363 N   0  0  0  0  0  0  0  0  0  0  0  0
   46.8202   51.9865   26.6114 C   0  0  0  0  0  0  0  0  0  0  0  0
   46.8102   52.3057   28.0373 N   0  0  0  0  0  0  0  0  0  0  0  0
   47.9902   52.4566   28.7157 C   0  0  0  0  0  0  0  0  0  0  0  0
   49.2098   52.2981   28.0290 C   0  0  0  0  0  0  0  0  0  0  0  0
   49.2189   51.9793   26.6082 C   0  0  0  0  0  0  0  0  0  0  0  0
   50.4849   51.8152   25.8929 N   0  0  0  0  0  0  0  0  0  0  0  0
   50.2816   52.5072   28.9716 N   0  0  0  0  0  0  0  0  0  0  0  0
   49.7000   52.7897   30.2299 C   0  0  0  0  0  0  0  0  0  0  0  0
   48.2821   52.7649   30.0916 N   0  0  0  0  0  0  0  0  0  0  0  0
  2  1  1  1  0  0  0
  2  3  1  0  0  0  0
  2  5  1  0  0  0  0
  3  4  1  0  0  0  0
  3 17  1  0  0  0  0
  5  6  1  0  0  0  0
  7  6  1  1  0  0  0
  7  8  1  0  0  0  0
  7  9  1  0  0  0  0
 10  9  1  6  0  0  0
 10 11  1  0  0  0  0
 10 12  1  0  0  0  0
 11 16  1  0  0  0  0
 12 13  1  1  0  0  0
 12 14  1  0  0  0  0
 14 15  1  1  0  0  0
 14 16  1  0  0  0  0
 16 27  1  6  0  0  0
 18 19  2  0  0  0  0
 18 23  1  0  0  0  0
 19 20  1  0  0  0  0
 20 21  2  0  0  0  0
 21 22  1  0  0  0  0
 21 27  1  0  0  0  0
 22 23  2  0  0  0  0
 22 25  1  0  0  0  0
 23 24  1  0  0  0  0
 25 26  2  0  0  0  0
 26 27  1  0  0  0  0
M  END
>  <CHROM.1>
1.33383451,77.03581511,-162.05543581,-169.73075993,76.26888863,173.82053832
-32.60997586,47.53265111,55.30887606,30.41158129,-1.85601518,-0.86232244
-2.83602727

>  <Name>
ligand

>  <RI>
0

>  <Rbt.Current_Directory>
/home/itssahil/PROJECTS/Mol_Feturizer/New_Systems/rnas/3GX2

>  <Rbt.Executable>
rbdock ($Id: //depot/dev/client3/rdock/2013.1/src/exe/rbdock.cxx#4 $)

>  <Rbt.Library>
libRbt.so (2013.1, Build901 2013/11/27)

>  <Rbt.Parameter_File>
/export/apps/rDock/src/rDock_2013.1_src/data/scripts/dock_solv.prm

>  <Rbt.Receptor>
prm/pocket_docking_4.prm

>  <SCORE>
-6.83721

>  <SCORE.INTER>
-6.10508

>  <SCORE.INTER.CONST>
1

>  <SCORE.INTER.POLAR>
0

>  <SCORE.INTER.ROT>
7

>  <SCORE.INTER.SOLV>
17.7919

>  <SCORE.INTER.VDW>
-18.2674

>  <SCORE.INTER.norm>
-0.226114

>  <SCORE.INTRA>
-0.739267

>  <SCORE.INTRA.DIHEDRAL>
-5.65106

>  <SCORE.INTRA.DIHEDRAL.0>
13.9704

>  <SCORE.INTRA.POLAR>
0

>  <SCORE.INTRA.POLAR.0>
0

>  <SCORE.INTRA.REPUL>
0

>  <SCORE.INTRA.REPUL.0>
0

>  <SCORE.INTRA.SOLV>
2.63014

>  <SCORE.INTRA.SOLV.lig_0>
-70.9758

>  <SCORE.INTRA.VDW>
0.771195

>  <SCORE.INTRA.VDW.0>
-2.70686

>  <SCORE.INTRA.norm>
-0.0273803

>  <SCORE.RESTR>
0.00713543

>  <SCORE.RESTR.CAVITY>
0.00713543

>  <SCORE.RESTR.norm>
0.000264275

>  <SCORE.SYSTEM>
0

>  <SCORE.SYSTEM.CONST>
0

>  <SCORE.SYSTEM.DIHEDRAL>
0

>  <SCORE.SYSTEM.SOLV>
0

>  <SCORE.SYSTEM.norm>
0

>  <SCORE.heavy>
27

>  <SCORE.norm>
-0.25323

>  <RMSD>
6.349

$$$$
ligand
 OpenBabel11021811473D
libRbt.so/2013.1/901 2013/11/27
 27 29  0  0  0  0  0  0  0  0999 V2000
   44.8590   54.2028   32.5813 N   0  0  0  0  0  0  0  0  0  0  0  0
   45.7915   53.5611   33.5052 C   0  0  2  0  0  0  0  0  0  0  0  0
   45.2466   53.3975   34.9256 C   0  0  0  0  0  0  0  0  0  0  0  0
   44.0843   53.5452   35.1105 O   0  0  0  0  0  0  0  0  0  0  0  0
   47.2245   54.1326   33.4727 C   0  0  0  0  0  0  0  0  0  0  0  0
   47.4582   55.6286   33.8228 C   0  0  0  0  0  0  0  0  0  0  0  0
   48.9255   56.1233   33.7201 C   0  0  2  0  0  0  0  0  0  0  0  0
   49.8336   55.4009   34.6109 N   0  0  0  0  0  0  0  0  0  0  0  0
   49.0356   57.6731   33.8588 C   0  0  0  0  0  0  0  0  0  0  0  0
   48.5720   58.5662   32.6588 C   0  0  1  0  0  0  0  0  0  0  0  0
   49.4352   58.6879   31.4895 O   0  0  0  0  0  0  0  0  0  0  0  0
   47.1617   58.2771   32.0729 C   0  0  1  0  0  0  0  0  0  0  0  0
   46.0244   58.5424   32.9044 O   0  0  0  0  0  0  0  0  0  0  0  0
   47.1961   58.8516   30.6228 C   0  0  1  0  0  0  0  0  0  0  0  0
   46.4341   60.0028   30.3491 O   0  0  0  0  0  0  0  0  0  0  0  0
   48.6934   58.8613   30.2989 C   0  0  2  0  0  0  0  0  0  0  0  0
   45.9908   52.6323   35.8456 O   0  0  0  0  0  0  0  0  0  0  0  0
   50.6203   53.8666   29.3894 N   0  0  0  0  0  0  0  0  0  0  0  0
   50.4214   54.4902   30.6265 C   0  0  0  0  0  0  0  0  0  0  0  0
   49.8902   55.8503   30.6832 N   0  0  0  0  0  0  0  0  0  0  0  0
   49.5843   56.5170   29.5269 C   0  0  0  0  0  0  0  0  0  0  0  0
   49.7893   55.8828   28.2860 C   0  0  0  0  0  0  0  0  0  0  0  0
   50.3194   54.5276   28.2302 C   0  0  0  0  0  0  0  0  0  0  0  0
   50.5321   53.8668   26.9420 N   0  0  0  0  0  0  0  0  0  0  0  0
   49.3908   56.7999   27.2463 N   0  0  0  0  0  0  0  0  0  0  0  0
   48.9474   57.9906   27.8685 C   0  0  0  0  0  0  0  0  0  0  0  0
   49.0576   57.8343   29.2804 N   0  0  0  0  0  0  0  0  0  0  0  0
  2  1  1  6  0  0  0
  2  3  1  0  0  0  0
  2  5  1  0  0  0  0
  3  4  1  0  0  0  0
  3 17  1  0  0  0  0
  5  6  1  0  0  0  0
  7  6  1  1  0  0  0
  7  8  1  0  0  0  0
  7  9  1  0  0  0  0
 10  9  1  1  0  0  0
 10 11  1  0  0  0  0
 10 12  1  0  0  0  0
 11 16  1  0  0  0  0
 12 13  1  1  0  0  0
 12 14  1  0  0  0  0
 14 15  1  1  0  0  0
 14 16  1  0  0  0  0
 16 27  1  6  0  0  0
 18 19  2  0  0  0  0
 18 23  1  0  0  0  0
 19 20  1  0  0  0  0
 20 21  2  0  0  0  0
 21 22  1  0  0  0  0
 21 27  1  0  0  0  0
 22 23  2  0  0  0  0
 22 25  1  0  0  0  0
 23 24  1  0  0  0  0
 25 26  2  0  0  0  0
 26 27  1  0  0  0  0
M  END
>  <CHROM.1>
14.18294546,60.55977317,-178.16540167,-60.08762618,-73.74437025,-76.51262148
26.32994811,48.09038980,56.14650495,31.57307676,-2.60782519,0.95819782,-0.21251145

>  <Name>
ligand

>  <RI>
0

>  <Rbt.Current_Directory>
/home/itssahil/PROJECTS/Mol_Feturizer/New_Systems/rnas/3GX2

>  <Rbt.Executable>
rbdock ($Id: //depot/dev/client3/rdock/2013.1/src/exe/rbdock.cxx#4 $)

>  <Rbt.Library>
libRbt.so (2013.1, Build901 2013/11/27)

>  <Rbt.Parameter_File>
/export/apps/rDock/src/rDock_2013.1_src/data/scripts/dock_solv.prm

>  <Rbt.Receptor>
prm/pocket_docking_4.prm

>  <SCORE>
-14.2261

>  <SCORE.INTER>
-9.95709

>  <SCORE.INTER.CONST>
1

>  <SCORE.INTER.POLAR>
0

>  <SCORE.INTER.ROT>
7

>  <SCORE.INTER.SOLV>
11.5371

>  <SCORE.INTER.VDW>
-18.7504

>  <SCORE.INTER.norm>
-0.368781

>  <SCORE.INTRA>
-4.26898

>  <SCORE.INTRA.DIHEDRAL>
-7.46691

>  <SCORE.INTRA.DIHEDRAL.0>
13.9704

>  <SCORE.INTRA.POLAR>
0

>  <SCORE.INTRA.POLAR.0>
0

>  <SCORE.INTRA.REPUL>
0

>  <SCORE.INTRA.REPUL.0>
0

>  <SCORE.INTRA.SOLV>
0.469444

>  <SCORE.INTRA.SOLV.lig_0>
-70.9758

>  <SCORE.INTRA.VDW>
-0.770252

>  <SCORE.INTRA.VDW.0>
-2.70686

>  <SCORE.INTRA.norm>
-0.158111

>  <SCORE.RESTR>
0

>  <SCORE.RESTR.CAVITY>
0

>  <SCORE.RESTR.norm>
0

>  <SCORE.SYSTEM>
0

>  <SCORE.SYSTEM.CONST>
0

>  <SCORE.SYSTEM.DIHEDRAL>
0

>  <SCORE.SYSTEM.SOLV>
0

>  <SCORE.SYSTEM.norm>
0

>  <SCORE.heavy>
27

>  <SCORE.norm>
-0.526892

>  <RMSD>
6.357

$$$$
ligand
 OpenBabel11021811473D
libRbt.so/2013.1/901 2013/11/27
 27 29  0  0  0  0  0  0  0  0999 V2000
   47.8271   54.6326   32.3440 N   0  0  0  0  0  0  0  0  0  0  0  0
   48.2043   54.0692   33.6383 C   0  0  2  0  0  0  0  0  0  0  0  0
   47.0394   53.9337   34.6211 C   0  0  0  0  0  0  0  0  0  0  0  0
   46.3603   52.9627   34.5694 O   0  0  0  0  0  0  0  0  0  0  0  0
   49.4581   54.7043   34.2753 C   0  0  0  0  0  0  0  0  0  0  0  0
   49.4028   56.1784   34.7645 C   0  0  0  0  0  0  0  0  0  0  0  0
   49.2654   57.2524   33.6527 C   0  0  2  0  0  0  0  0  0  0  0  0
   49.9232   58.5134   33.9949 N   0  0  0  0  0  0  0  0  0  0  0  0
   47.7865   57.4381   33.1928 C   0  0  0  0  0  0  0  0  0  0  0  0
   47.4553   58.5917   32.1869 C   0  0  1  0  0  0  0  0  0  0  0  0
   48.3346   58.8114   31.0442 O   0  0  0  0  0  0  0  0  0  0  0  0
   46.0227   58.6074   31.5841 C   0  0  1  0  0  0  0  0  0  0  0  0
   44.9262   58.8637   32.4713 O   0  0  0  0  0  0  0  0  0  0  0  0
   46.1438   59.4305   30.2643 C   0  0  1  0  0  0  0  0  0  0  0  0
   45.5457   60.7038   30.2218 O   0  0  0  0  0  0  0  0  0  0  0  0
   47.6308   59.2998   29.9200 C   0  0  2  0  0  0  0  0  0  0  0  0
   47.0862   54.6690   35.8223 O   0  0  0  0  0  0  0  0  0  0  0  0
   50.3930   55.1356   27.7947 N   0  0  0  0  0  0  0  0  0  0  0  0
   50.5047   55.6601   29.0875 C   0  0  0  0  0  0  0  0  0  0  0  0
   49.6755   56.7934   29.4913 N   0  0  0  0  0  0  0  0  0  0  0  0
   48.7864   57.3436   28.6070 C   0  0  0  0  0  0  0  0  0  0  0  0
   48.6816   56.8109   27.3073 C   0  0  0  0  0  0  0  0  0  0  0  0
   49.5089   55.6819   26.9053 C   0  0  0  0  0  0  0  0  0  0  0  0
   49.4007   55.1264   25.5558 N   0  0  0  0  0  0  0  0  0  0  0  0
   47.6841   57.5706   26.5941 N   0  0  0  0  0  0  0  0  0  0  0  0
   47.1911   58.5652   27.4712 C   0  0  0  0  0  0  0  0  0  0  0  0
   47.8599   58.4398   28.7230 N   0  0  0  0  0  0  0  0  0  0  0  0
  2  1  1  6  0  0  0
  2  3  1  0  0  0  0
  2  5  1  0  0  0  0
  3  4  1  0  0  0  0
  3 17  1  0  0  0  0
  5  6  1  0  0  0  0
  7  6  1  1  0  0  0
  7  8  1  0  0  0  0
  7  9  1  0  0  0  0
 10  9  1  6  0  0  0
 10 11  1  0  0  0  0
 10 12  1  0  0  0  0
 11 16  1  0  0  0  0
 12 13  1  1  0  0  0
 12 14  1  0  0  0  0
 14 15  1  1  0  0  0
 14 16  1  0  0  0  0
 16 27  1  6  0  0  0
 18 19  2  0  0  0  0
 18 23  1  0  0  0  0
 19 20  1  0  0  0  0
 20 21  2  0  0  0  0
 21 22  1  0  0  0  0
 21 27  1  0  0  0  0
 22 23  2  0  0  0  0
 22 25  1  0  0  0  0
 23 24  1  0  0  0  0
 25 26  2  0  0  0  0
 26 27  1  0  0  0  0
M  END
>  <CHROM.1>
85.27022203,67.66591219,-67.82353673,-148.33637166,173.54092184,43.67258159
-7.35047959,48.02387532,56.88340209,31.07611538,-1.75338355,1.03072056,-1.11678483

>  <Name>
ligand

>  <RI>
0

>  <Rbt.Current_Directory>
/home/itssahil/PROJECTS/Mol_Feturizer/New_Systems/rnas/3GX2

>  <Rbt.Executable>
rbdock ($Id: //depot/dev/client3/rdock/2013.1/src/exe/rbdock.cxx#4 $)

>  <Rbt.Library>
libRbt.so (2013.1, Build901 2013/11/27)

>  <Rbt.Parameter_File>
/export/apps/rDock/src/rDock_2013.1_src/data/scripts/dock_solv.prm

>  <Rbt.Receptor>
prm/pocket_docking_5.prm

>  <SCORE>
-11.1536

>  <SCORE.INTER>
-10.7332

>  <SCORE.INTER.CONST>
1

>  <SCORE.INTER.POLAR>
0

>  <SCORE.INTER.ROT>
7

>  <SCORE.INTER.SOLV>
16.8809

>  <SCORE.INTER.VDW>
-21.0491

>  <SCORE.INTER.norm>
-0.397526

>  <SCORE.INTRA>
-0.51008

>  <SCORE.INTRA.DIHEDRAL>
-5.29569

>  <SCORE.INTRA.DIHEDRAL.0>
13.9704

>  <SCORE.INTRA.POLAR>
0

>  <SCORE.INTRA.POLAR.0>
0

>  <SCORE.INTRA.REPUL>
0

>  <SCORE.INTRA.REPUL.0>
0

>  <SCORE.INTRA.SOLV>
3.54113

>  <SCORE.INTRA.SOLV.lig_0>
-70.9758

>  <SCORE.INTRA.VDW>
0.367198

>  <SCORE.INTRA.VDW.0>
-2.70686

>  <SCORE.INTRA.norm>
-0.0188919

>  <SCORE.RESTR>
0.0896709

>  <SCORE.RESTR.CAVITY>
0.0896709

>  <SCORE.RESTR.norm>
0.00332115

>  <SCORE.SYSTEM>
0

>  <SCORE.SYSTEM.CONST>
0

>  <SCORE.SYSTEM.DIHEDRAL>
0

>  <SCORE.SYSTEM.SOLV>
0

>  <SCORE.SYSTEM.norm>
0

>  <SCORE.heavy>
27

>  <SCORE.norm>
-0.413096

>  <RMSD>
6.366

$$$$
ligand
 OpenBabel11021811473D
libRbt.so/2013.1/901 2013/11/27
 27 29  0  0  0  0  0  0  0  0999 V2000
   48.7594   54.7478   35.6449 N   0  0  0  0  0  0  0  0  0  0  0  0
   47.5778   54.5894   34.8000 C   0  0  2  0  0  0  0  0  0  0  0  0
   46.2728   54.4205   35.5807 C   0  0  0  0  0  0  0  0  0  0  0  0
   45.2570   54.7638   35.0736 O   0  0  0  0  0  0  0  0  0  0  0  0
   47.7351   53.5602   33.6610 C   0  0  0  0  0  0  0  0  0  0  0  0
   48.8660   53.7489   32.6120 C   0  0  0  0  0  0  0  0  0  0  0  0
   48.7565   55.0170   31.7240 C   0  0  2  0  0  0  0  0  0  0  0  0
   49.5392   54.9187   30.4921 N   0  0  0  0  0  0  0  0  0  0  0  0
   49.0394   56.3242   32.5268 C   0  0  0  0  0  0  0  0  0  0  0  0
   48.7961   57.7017   31.8226 C   0  0  1  0  0  0  0  0  0  0  0  0
   49.4626   57.9785   30.5551 O   0  0  0  0  0  0  0  0  0  0  0  0
   47.3173   58.1159   31.5832 C   0  0  1  0  0  0  0  0  0  0  0  0
   46.5048   58.3901   32.7320 O   0  0  0  0  0  0  0  0  0  0  0  0
   47.3670   59.1539   30.4194 C   0  0  1  0  0  0  0  0  0  0  0  0
   47.0849   60.4994   30.7209 O   0  0  0  0  0  0  0  0  0  0  0  0
   48.6865   58.8135   29.7195 C   0  0  2  0  0  0  0  0  0  0  0  0
   46.2287   53.4643   36.6148 O   0  0  0  0  0  0  0  0  0  0  0  0
   50.4641   55.2196   26.0574 N   0  0  0  0  0  0  0  0  0  0  0  0
   51.0251   55.5112   27.3060 C   0  0  0  0  0  0  0  0  0  0  0  0
   50.4084   56.5167   28.1683 N   0  0  0  0  0  0  0  0  0  0  0  0
   49.2798   57.1747   27.7579 C   0  0  0  0  0  0  0  0  0  0  0  0
   48.7227   56.8766   26.4990 C   0  0  0  0  0  0  0  0  0  0  0  0
   49.3382   55.8748   25.6399 C   0  0  0  0  0  0  0  0  0  0  0  0
   48.7603   55.5631   24.3321 N   0  0  0  0  0  0  0  0  0  0  0  0
   47.5553   57.7053   26.3215 N   0  0  0  0  0  0  0  0  0  0  0  0
   47.4147   58.5057   27.4796 C   0  0  0  0  0  0  0  0  0  0  0  0
   48.4717   58.1904   28.3815 N   0  0  0  0  0  0  0  0  0  0  0  0
  2  1  1  1  0  0  0
  2  3  1  0  0  0  0
  2  5  1  0  0  0  0
  3  4  1  0  0  0  0
  3 17  1  0  0  0  0
  5  6  1  0  0  0  0
  7  6  1  1  0  0  0
  7  8  1  0  0  0  0
  7  9  1  0  0  0  0
 10  9  1  6  0  0  0
 10 11  1  0  0  0  0
 10 12  1  0  0  0  0
 11 16  1  0  0  0  0
 12 13  1  1  0  0  0
 12 14  1  0  0  0  0
 14 15  1  1  0  0  0
 14 16  1  0  0  0  0
 16 27  1  6  0  0  0
 18 19  2  0  0  0  0
 18 23  1  0  0  0  0
 19 20  1  0  0  0  0
 20 21  2  0  0  0  0
 21 22  1  0  0  0  0
 21 27  1  0  0  0  0
 22 23  2  0  0  0  0
 22 25  1  0  0  0  0
 23 24  1  0  0  0  0
 25 26  2  0  0  0  0
 26 27  1  0  0  0  0
M  END
>  <CHROM.1>
152.85252862,-58.29755140,-64.06149770,-160.19039816,-172.52162590,-55.22452537
-22.50965776,48.27081890,56.41844990,30.66205409,-2.12887385,1.11758452,-0.79537926

>  <Name>
ligand

>  <RI>
0

>  <Rbt.Current_Directory>
/home/itssahil/PROJECTS/Mol_Feturizer/New_Systems/rnas/3GX2

>  <Rbt.Executable>
rbdock ($Id: //depot/dev/client3/rdock/2013.1/src/exe/rbdock.cxx#4 $)

>  <Rbt.Library>
libRbt.so (2013.1, Build901 2013/11/27)

>  <Rbt.Parameter_File>
/export/apps/rDock/src/rDock_2013.1_src/data/scripts/dock_solv.prm

>  <Rbt.Receptor>
prm/pocket_docking_7.prm

>  <SCORE>
-11.5655

>  <SCORE.INTER>
-9.33055

>  <SCORE.INTER.CONST>
1

>  <SCORE.INTER.POLAR>
0

>  <SCORE.INTER.ROT>
7

>  <SCORE.INTER.SOLV>
14.8362

>  <SCORE.INTER.VDW>
-19.4324

>  <SCORE.INTER.norm>
-0.345576

>  <SCORE.INTRA>
-2.23493

>  <SCORE.INTRA.DIHEDRAL>
-7.45941

>  <SCORE.INTRA.DIHEDRAL.0>
13.9704

>  <SCORE.INTRA.POLAR>
0

>  <SCORE.INTRA.POLAR.0>
0

>  <SCORE.INTRA.REPUL>
0

>  <SCORE.INTRA.REPUL.0>
0

>  <SCORE.INTRA.SOLV>
3.84416

>  <SCORE.INTRA.SOLV.lig_0>
-70.9758

>  <SCORE.INTRA.VDW>
-0.427306

>  <SCORE.INTRA.VDW.0>
-2.70686

>  <SCORE.INTRA.norm>
-0.0827753

>  <SCORE.RESTR>
0

>  <SCORE.RESTR.CAVITY>
0

>  <SCORE.RESTR.norm>
0

>  <SCORE.SYSTEM>
0

>  <SCORE.SYSTEM.CONST>
0

>  <SCORE.SYSTEM.DIHEDRAL>
0

>  <SCORE.SYSTEM.SOLV>
0

>  <SCORE.SYSTEM.norm>
0

>  <SCORE.heavy>
27

>  <SCORE.norm>
-0.428351

>  <RMSD>
6.378

$$$$
ligand
 OpenBabel11021811473D
libRbt.so/2013.1/901 2013/11/27
 27 29  0  0  0  0  0  0  0  0999 V2000
   48.4652   55.2787   32.9329 N   0  0  0  0  0  0  0  0  0  0  0  0
   49.3948   55.7274   33.9671 C   0  0  2  0  0  0  0  0  0  0  0  0
   49.3493   54.8930   35.2489 C   0  0  0  0  0  0  0  0  0  0  0  0
   50.3591   54.4277   35.6620 O   0  0  0  0  0  0  0  0  0  0  0  0
   49.3722   57.2465   34.2369 C   0  0  0  0  0  0  0  0  0  0  0  0
   49.5024   58.2358   33.0455 C   0  0  0  0  0  0  0  0  0  0  0  0
   48.3370   58.2135   32.0209 C   0  0  2  0  0  0  0  0  0  0  0  0
   48.7006   58.8025   30.7321 N   0  0  0  0  0  0  0  0  0  0  0  0
   47.0201   58.8027   32.6139 C   0  0  0  0  0  0  0  0  0  0  0  0
   45.6526   58.2084   32.1350 C   0  0  1  0  0  0  0  0  0  0  0  0
   45.3528   58.1776   30.7080 O   0  0  0  0  0  0  0  0  0  0  0  0
   45.2920   56.7831   32.6392 C   0  0  1  0  0  0  0  0  0  0  0  0
   45.0464   56.6114   34.0411 O   0  0  0  0  0  0  0  0  0  0  0  0
   44.2536   56.2366   31.6110 C   0  0  1  0  0  0  0  0  0  0  0  0
   42.9189   56.0906   32.0331 O   0  0  0  0  0  0  0  0  0  0  0  0
   44.5467   57.0701   30.3596 C   0  0  2  0  0  0  0  0  0  0  0  0
   48.2756   55.0904   36.1399 O   0  0  0  0  0  0  0  0  0  0  0  0
   47.5147   57.1165   25.8125 N   0  0  0  0  0  0  0  0  0  0  0  0
   47.1167   58.2167   26.5807 C   0  0  0  0  0  0  0  0  0  0  0  0
   46.3128   58.0162   27.7842 N   0  0  0  0  0  0  0  0  0  0  0  0
   45.9485   56.7520   28.1643 C   0  0  0  0  0  0  0  0  0  0  0  0
   46.3517   55.6505   27.3845 C   0  0  0  0  0  0  0  0  0  0  0  0
   47.1522   55.8511   26.1847 C   0  0  0  0  0  0  0  0  0  0  0  0
   47.5728   54.7079   25.3738 N   0  0  0  0  0  0  0  0  0  0  0  0
   45.8361   54.4541   28.0041 N   0  0  0  0  0  0  0  0  0  0  0  0
   45.1182   54.8423   29.1597 C   0  0  0  0  0  0  0  0  0  0  0  0
   45.1779   56.2610   29.2772 N   0  0  0  0  0  0  0  0  0  0  0  0
  2  1  1  6  0  0  0
  2  3  1  0  0  0  0
  2  5  1  0  0  0  0
  3  4  1  0  0  0  0
  3 17  1  0  0  0  0
  5  6  1  0  0  0  0
  7  6  1  1  0  0  0
  7  8  1  0  0  0  0
  7  9  1  0  0  0  0
 10  9  1  6  0  0  0
 10 11  1  0  0  0  0
 10 12  1  0  0  0  0
 11 16  1  0  0  0  0
 12 13  1  1  0  0  0
 12 14  1  0  0  0  0
 14 15  1  1  0  0  0
 14 16  1  0  0  0  0
 16 27  1  6  0  0  0
 18 19  2  0  0  0  0
 18 23  1  0  0  0  0
 19 20  1  0  0  0  0
 20 21  2  0  0  0  0
 21 22  1  0  0  0  0
 21 27  1  0  0  0  0
 22 23  2  0  0  0  0
 22 25  1  0  0  0  0
 23 24  1  0  0  0  0
 25 26  2  0  0  0  0
 26 27  1  0  0  0  0
M  END
>  <CHROM.1>
126.12073634,-50.95939175,64.97167258,-160.77874329,-147.05635541,-55.12557631
-36.19861617,46.89208736,56.57643183,31.01956261,-1.28058769,0.08757995,-1.54918523

>  <Name>
ligand

>  <RI>
0

>  <Rbt.Current_Directory>
/home/itssahil/PROJECTS/Mol_Feturizer/New_Systems/rnas/3GX2

>  <Rbt.Executable>
rbdock ($Id: //depot/dev/client3/rdock/2013.1/src/exe/rbdock.cxx#4 $)

>  <Rbt.Library>
libRbt.so (2013.1, Build901 2013/11/27)

>  <Rbt.Parameter_File>
/export/apps/rDock/src/rDock_2013.1_src/data/scripts/dock_solv.prm

>  <Rbt.Receptor>
prm/pocket_docking_7.prm

>  <SCORE>
-11.1985

>  <SCORE.INTER>
-10.6087

>  <SCORE.INTER.CONST>
1

>  <SCORE.INTER.POLAR>
0

>  <SCORE.INTER.ROT>
7

>  <SCORE.INTER.SOLV>
14.7636

>  <SCORE.INTER.VDW>
-20.2603

>  <SCORE.INTER.norm>
-0.392915

>  <SCORE.INTRA>
-0.589827

>  <SCORE.INTRA.DIHEDRAL>
-4.29768

>  <SCORE.INTRA.DIHEDRAL.0>
13.9704

>  <SCORE.INTRA.POLAR>
0

>  <SCORE.INTRA.POLAR.0>
0

>  <SCORE.INTRA.REPUL>
0

>  <SCORE.INTRA.REPUL.0>
0

>  <SCORE.INTRA.SOLV>
3.94524

>  <SCORE.INTRA.SOLV.lig_0>
-70.9758

>  <SCORE.INTRA.VDW>
-0.413609

>  <SCORE.INTRA.VDW.0>
-2.70686

>  <SCORE.INTRA.norm>
-0.0218454

>  <SCORE.RESTR>
0

>  <SCORE.RESTR.CAVITY>
0

>  <SCORE.RESTR.norm>
0

>  <SCORE.SYSTEM>
0

>  <SCORE.SYSTEM.CONST>
0

>  <SCORE.SYSTEM.DIHEDRAL>
0

>  <SCORE.SYSTEM.SOLV>
0

>  <SCORE.SYSTEM.norm>
0

>  <SCORE.heavy>
27

>  <SCORE.norm>
-0.41476

>  <RMSD>
6.379

$$$$
ligand
 OpenBabel11021811483D
libRbt.so/2013.1/901 2013/11/27
 27 29  0  0  0  0  0  0  0  0999 V2000
   50.2032   55.3241   27.1920 N   0  0  0  0  0  0  0  0  0  0  0  0
   50.2886   54.9095   28.5905 C   0  0  2  0  0  0  0  0  0  0  0  0
   51.0438   53.5962   28.8051 C   0  0  0  0  0  0  0  0  0  0  0  0
   51.5330   53.3869   29.8651 O   0  0  0  0  0  0  0  0  0  0  0  0
   48.9532   54.9686   29.3614 C   0  0  0  0  0  0  0  0  0  0  0  0
   48.9047   54.4985   30.8419 C   0  0  0  0  0  0  0  0  0  0  0  0
   47.5453   54.6906   31.5655 C   0  0  2  0  0  0  0  0  0  0  0  0
   47.2496   56.0929   31.8589 N   0  0  0  0  0  0  0  0  0  0  0  0
   47.4043   53.7614   32.8105 C   0  0  0  0  0  0  0  0  0  0  0  0
   45.9992   53.6279   33.4888 C   0  0  1  0  0  0  0  0  0  0  0  0
   45.8436   52.7316   34.6289 O   0  0  0  0  0  0  0  0  0  0  0  0
   45.3063   54.9464   33.9330 C   0  0  1  0  0  0  0  0  0  0  0  0
   44.8920   55.8620   32.9107 O   0  0  0  0  0  0  0  0  0  0  0  0
   44.2863   54.5210   35.0342 C   0  0  1  0  0  0  0  0  0  0  0  0
   42.9145   54.5882   34.7265 O   0  0  0  0  0  0  0  0  0  0  0  0
   44.8671   53.1963   35.5390 C   0  0  2  0  0  0  0  0  0  0  0  0
   50.7428   52.5046   27.9663 O   0  0  0  0  0  0  0  0  0  0  0  0
   49.1339   54.5834   38.5981 N   0  0  0  0  0  0  0  0  0  0  0  0
   49.0322   54.6391   37.2034 C   0  0  0  0  0  0  0  0  0  0  0  0
   47.7975   54.2221   36.5426 N   0  0  0  0  0  0  0  0  0  0  0  0
   46.7369   53.7776   37.2860 C   0  0  0  0  0  0  0  0  0  0  0  0
   46.8482   53.7228   38.6891 C   0  0  0  0  0  0  0  0  0  0  0  0
   48.0793   54.1379   39.3469 C   0  0  0  0  0  0  0  0  0  0  0  0
   48.1965   54.0827   40.8045 N   0  0  0  0  0  0  0  0  0  0  0  0
   45.6018   53.2223   39.2151 N   0  0  0  0  0  0  0  0  0  0  0  0
   44.7408   52.9735   38.1205 C   0  0  0  0  0  0  0  0  0  0  0  0
   45.4247   53.3130   36.9175 N   0  0  0  0  0  0  0  0  0  0  0  0
  2  1  1  6  0  0  0
  2  3  1  0  0  0  0
  2  5  1  0  0  0  0
  3  4  1  0  0  0  0
  3 17  1  0  0  0  0
  5  6  1  0  0  0  0
  7  6  1  1  0  0  0
  7  8  1  0  0  0  0
  7  9  1  0  0  0  0
 10  9  1  1  0  0  0
 10 11  1  0  0  0  0
 10 12  1  0  0  0  0
 11 16  1  0  0  0  0
 12 13  1  6  0  0  0
 12 14  1  0  0  0  0
 14 15  1  6  0  0  0
 14 16  1  0  0  0  0
 16 27  1  1  0  0  0
 18 19  2  0  0  0  0
 18 23  1  0  0  0  0
 19 20  1  0  0  0  0
 20 21  2  0  0  0  0
 21 22  1  0  0  0  0
 21 27  1  0  0  0  0
 22 23  2  0  0  0  0
 22 25  1  0  0  0  0
 23 24  1  0  0  0  0
 25 26  2  0  0  0  0
 26 27  1  0  0  0  0
M  END
>  <CHROM.1>
156.39392621,177.60146900,175.73013931,-71.63336570,-168.44178450,178.16980976
39.12299981,47.40064880,54.14155984,34.00969013,1.19319606,0.09161433,-1.49108906

>  <Name>
ligand

>  <RI>
0

>  <Rbt.Current_Directory>
/home/itssahil/PROJECTS/Mol_Feturizer/New_Systems/rnas/3GX2

>  <Rbt.Executable>
rbdock ($Id: //depot/dev/client3/rdock/2013.1/src/exe/rbdock.cxx#4 $)

>  <Rbt.Library>
libRbt.so (2013.1, Build901 2013/11/27)

>  <Rbt.Parameter_File>
/export/apps/rDock/src/rDock_2013.1_src/data/scripts/dock_solv.prm

>  <Rbt.Receptor>
prm/pocket_docking_8.prm

>  <SCORE>
-10.9134

>  <SCORE.INTER>
-8.52628

>  <SCORE.INTER.CONST>
1

>  <SCORE.INTER.POLAR>
0

>  <SCORE.INTER.ROT>
7

>  <SCORE.INTER.SOLV>
11.284

>  <SCORE.INTER.VDW>
-17.7122

>  <SCORE.INTER.norm>
-0.315788

>  <SCORE.INTRA>
-2.38714

>  <SCORE.INTRA.DIHEDRAL>
-7.96859

>  <SCORE.INTRA.DIHEDRAL.0>
13.9704

>  <SCORE.INTRA.POLAR>
0

>  <SCORE.INTRA.POLAR.0>
0

>  <SCORE.INTRA.REPUL>
0

>  <SCORE.INTRA.REPUL.0>
0

>  <SCORE.INTRA.SOLV>
2.52528

>  <SCORE.INTRA.SOLV.lig_0>
-70.9758

>  <SCORE.INTRA.VDW>
0.334514

>  <SCORE.INTRA.VDW.0>
-2.70686

>  <SCORE.INTRA.norm>
-0.0884127

>  <SCORE.RESTR>
0

>  <SCORE.RESTR.CAVITY>
0

>  <SCORE.RESTR.norm>
0

>  <SCORE.SYSTEM>
0

>  <SCORE.SYSTEM.CONST>
0

>  <SCORE.SYSTEM.DIHEDRAL>
0

>  <SCORE.SYSTEM.SOLV>
0

>  <SCORE.SYSTEM.norm>
0

>  <SCORE.heavy>
27

>  <SCORE.norm>
-0.404201

>  <RMSD>
6.407

$$$$
ligand
 OpenBabel11021811473D
libRbt.so/2013.1/901 2013/11/27
 27 29  0  0  0  0  0  0  0  0999 V2000
   50.1169   54.7566   34.7423 N   0  0  0  0  0  0  0  0  0  0  0  0
   48.9554   55.6134   34.5148 C   0  0  2  0  0  0  0  0  0  0  0  0
   47.6977   54.8552   34.0847 C   0  0  0  0  0  0  0  0  0  0  0  0
   47.8117   53.9379   33.3416 O   0  0  0  0  0  0  0  0  0  0  0  0
   49.2345   56.8576   33.6458 C   0  0  0  0  0  0  0  0  0  0  0  0
   48.0866   57.8674   33.3669 C   0  0  0  0  0  0  0  0  0  0  0  0
   48.4668   59.0969   32.4996 C   0  0  2  0  0  0  0  0  0  0  0  0
   49.5400   59.8984   33.0877 N   0  0  0  0  0  0  0  0  0  0  0  0
   47.2193   59.9433   32.0988 C   0  0  0  0  0  0  0  0  0  0  0  0
   46.2733   59.3962   30.9771 C   0  0  1  0  0  0  0  0  0  0  0  0
   46.6842   59.5131   29.5826 O   0  0  0  0  0  0  0  0  0  0  0  0
   45.7940   57.9246   31.1196 C   0  0  1  0  0  0  0  0  0  0  0  0
   44.9258   57.6066   32.2151 O   0  0  0  0  0  0  0  0  0  0  0  0
   45.3941   57.4837   29.6774 C   0  0  1  0  0  0  0  0  0  0  0  0
   44.0281   57.2887   29.4003 O   0  0  0  0  0  0  0  0  0  0  0  0
   46.1980   58.4444   28.7955 C   0  0  2  0  0  0  0  0  0  0  0  0
   46.5567   54.9269   34.9085 O   0  0  0  0  0  0  0  0  0  0  0  0
   50.8941   55.7515   29.2218 N   0  0  0  0  0  0  0  0  0  0  0  0
   50.1125   56.2697   30.2607 C   0  0  0  0  0  0  0  0  0  0  0  0
   48.8675   56.9724   29.9590 N   0  0  0  0  0  0  0  0  0  0  0  0
   48.4616   57.1241   28.6600 C   0  0  0  0  0  0  0  0  0  0  0  0
   49.2551   56.6011   27.6203 C   0  0  0  0  0  0  0  0  0  0  0  0
   50.4962   55.9015   27.9216 C   0  0  0  0  0  0  0  0  0  0  0  0
   51.3213   55.3567   26.8429 N   0  0  0  0  0  0  0  0  0  0  0  0
   48.6025   56.9001   26.3690 N   0  0  0  0  0  0  0  0  0  0  0  0
   47.4132   57.6084   26.6616 C   0  0  0  0  0  0  0  0  0  0  0  0
   47.3072   57.7553   28.0748 N   0  0  0  0  0  0  0  0  0  0  0  0
  2  1  1  6  0  0  0
  2  3  1  0  0  0  0
  2  5  1  0  0  0  0
  3  4  1  0  0  0  0
  3 17  1  0  0  0  0
  5  6  1  0  0  0  0
  7  6  1  1  0  0  0
  7  8  1  0  0  0  0
  7  9  1  0  0  0  0
 10  9  1  1  0  0  0
 10 11  1  0  0  0  0
 10 12  1  0  0  0  0
 11 16  1  0  0  0  0
 12 13  1  1  0  0  0
 12 14  1  0  0  0  0
 14 15  1  1  0  0  0
 14 16  1  0  0  0  0
 16 27  1  1  0  0  0
 18 19  2  0  0  0  0
 18 23  1  0  0  0  0
 19 20  1  0  0  0  0
 20 21  2  0  0  0  0
 21 22  1  0  0  0  0
 21 27  1  0  0  0  0
 22 23  2  0  0  0  0
 22 25  1  0  0  0  0
 23 24  1  0  0  0  0
 25 26  2  0  0  0  0
 26 27  1  0  0  0  0
M  END
>  <CHROM.1>
-38.44239833,-178.26773549,179.19975268,-59.03276173,-75.41756214,-77.31252252
58.46723555,47.92397979,57.08884611,30.80911122,-1.63617998,0.59534142,-1.37265888

>  <Name>
ligand

>  <RI>
0

>  <Rbt.Current_Directory>
/home/itssahil/PROJECTS/Mol_Feturizer/New_Systems/rnas/3GX2

>  <Rbt.Executable>
rbdock ($Id: //depot/dev/client3/rdock/2013.1/src/exe/rbdock.cxx#4 $)

>  <Rbt.Library>
libRbt.so (2013.1, Build901 2013/11/27)

>  <Rbt.Parameter_File>
/export/apps/rDock/src/rDock_2013.1_src/data/scripts/dock_solv.prm

>  <Rbt.Receptor>
prm/pocket_docking_6.prm

>  <SCORE>
-13.7017

>  <SCORE.INTER>
-8.64766

>  <SCORE.INTER.CONST>
1

>  <SCORE.INTER.POLAR>
0

>  <SCORE.INTER.ROT>
7

>  <SCORE.INTER.SOLV>
22.6367

>  <SCORE.INTER.VDW>
-21.5773

>  <SCORE.INTER.norm>
-0.320284

>  <SCORE.INTRA>
-5.05402

>  <SCORE.INTRA.DIHEDRAL>
-7.77929

>  <SCORE.INTRA.DIHEDRAL.0>
13.9704

>  <SCORE.INTRA.POLAR>
0

>  <SCORE.INTRA.POLAR.0>
0

>  <SCORE.INTRA.REPUL>
0

>  <SCORE.INTRA.REPUL.0>
0

>  <SCORE.INTRA.SOLV>
0.115528

>  <SCORE.INTRA.SOLV.lig_0>
-70.9758

>  <SCORE.INTRA.VDW>
-1.22214

>  <SCORE.INTRA.VDW.0>
-2.70686

>  <SCORE.INTRA.norm>
-0.187186

>  <SCORE.RESTR>
0

>  <SCORE.RESTR.CAVITY>
0

>  <SCORE.RESTR.norm>
0

>  <SCORE.SYSTEM>
0

>  <SCORE.SYSTEM.CONST>
0

>  <SCORE.SYSTEM.DIHEDRAL>
0

>  <SCORE.SYSTEM.SOLV>
0

>  <SCORE.SYSTEM.norm>
0

>  <SCORE.heavy>
27

>  <SCORE.norm>
-0.50747

>  <RMSD>
6.410

$$$$
ligand
 OpenBabel11021811473D
libRbt.so/2013.1/901 2013/11/27
 27 29  0  0  0  0  0  0  0  0999 V2000
   47.8764   53.6164   35.0435 N   0  0  0  0  0  0  0  0  0  0  0  0
   47.3174   54.8947   34.6095 C   0  0  2  0  0  0  0  0  0  0  0  0
   46.0206   54.7664   33.8075 C   0  0  0  0  0  0  0  0  0  0  0  0
   45.2523   55.6699   33.8182 O   0  0  0  0  0  0  0  0  0  0  0  0
   48.3355   55.8537   33.9577 C   0  0  0  0  0  0  0  0  0  0  0  0
   47.8790   57.2763   33.5299 C   0  0  0  0  0  0  0  0  0  0  0  0
   49.0050   58.2276   33.0446 C   0  0  2  0  0  0  0  0  0  0  0  0
   50.0716   58.3973   34.0314 N   0  0  0  0  0  0  0  0  0  0  0  0
   48.4430   59.5814   32.5111 C   0  0  0  0  0  0  0  0  0  0  0  0
   47.7354   59.5989   31.1143 C   0  0  1  0  0  0  0  0  0  0  0  0
   48.5297   59.3677   29.9131 O   0  0  0  0  0  0  0  0  0  0  0  0
   46.4955   58.6772   30.9442 C   0  0  1  0  0  0  0  0  0  0  0  0
   45.3229   58.9849   31.7093 O   0  0  0  0  0  0  0  0  0  0  0  0
   46.3640   58.4488   29.4065 C   0  0  1  0  0  0  0  0  0  0  0  0
   45.2808   59.0502   28.7388 O   0  0  0  0  0  0  0  0  0  0  0  0
   47.7853   58.7181   28.9023 C   0  0  2  0  0  0  0  0  0  0  0  0
   45.9825   53.8524   32.7356 O   0  0  0  0  0  0  0  0  0  0  0  0
   50.4266   54.2013   30.3547 N   0  0  0  0  0  0  0  0  0  0  0  0
   49.9077   55.1920   31.1962 C   0  0  0  0  0  0  0  0  0  0  0  0
   49.2213   56.3495   30.6269 N   0  0  0  0  0  0  0  0  0  0  0  0
   49.0825   56.4668   29.2697 C   0  0  0  0  0  0  0  0  0  0  0  0
   49.6093   55.4662   28.4298 C   0  0  0  0  0  0  0  0  0  0  0  0
   50.2939   54.3133   28.9978 C   0  0  0  0  0  0  0  0  0  0  0  0
   50.8410   53.2723   28.1270 N   0  0  0  0  0  0  0  0  0  0  0  0
   49.3274   55.8373   27.0646 N   0  0  0  0  0  0  0  0  0  0  0  0
   48.6304   57.0682   27.0876 C   0  0  0  0  0  0  0  0  0  0  0  0
   48.4673   57.4733   28.4438 N   0  0  0  0  0  0  0  0  0  0  0  0
  2  1  1  6  0  0  0
  2  3  1  0  0  0  0
  2  5  1  0  0  0  0
  3  4  1  0  0  0  0
  3 17  1  0  0  0  0
  5  6  1  0  0  0  0
  7  6  1  1  0  0  0
  7  8  1  0  0  0  0
  7  9  1  0  0  0  0
 10  9  1  1  0  0  0
 10 11  1  0  0  0  0
 10 12  1  0  0  0  0
 11 16  1  0  0  0  0
 12 13  1  6  0  0  0
 12 14  1  0  0  0  0
 14 15  1  6  0  0  0
 14 16  1  0  0  0  0
 16 27  1  1  0  0  0
 18 19  2  0  0  0  0
 18 23  1  0  0  0  0
 19 20  1  0  0  0  0
 20 21  2  0  0  0  0
 21 22  1  0  0  0  0
 21 27  1  0  0  0  0
 22 23  2  0  0  0  0
 22 25  1  0  0  0  0
 23 24  1  0  0  0  0
 25 26  2  0  0  0  0
 26 27  1  0  0  0  0
M  END
>  <CHROM.1>
153.37310367,-176.47320527,172.83178867,-56.12179231,-74.13417146,-68.23157525
44.30829064,48.05412029,56.71777471,31.06733570,-2.14461560,0.99004843,-0.91661149

>  <Name>
ligand

>  <RI>
0

>  <Rbt.Current_Directory>
/home/itssahil/PROJECTS/Mol_Feturizer/New_Systems/rnas/3GX2

>  <Rbt.Executable>
rbdock ($Id: //depot/dev/client3/rdock/2013.1/src/exe/rbdock.cxx#4 $)

>  <Rbt.Library>
libRbt.so (2013.1, Build901 2013/11/27)

>  <Rbt.Parameter_File>
/export/apps/rDock/src/rDock_2013.1_src/data/scripts/dock_solv.prm

>  <Rbt.Receptor>
prm/pocket_docking_4.prm

>  <SCORE>
-11.8027

>  <SCORE.INTER>
-6.63986

>  <SCORE.INTER.CONST>
1

>  <SCORE.INTER.POLAR>
0

>  <SCORE.INTER.ROT>
7

>  <SCORE.INTER.SOLV>
19.3002

>  <SCORE.INTER.VDW>
-19.1267

>  <SCORE.INTER.norm>
-0.245921

>  <SCORE.INTRA>
-5.16281

>  <SCORE.INTRA.DIHEDRAL>
-7.92554

>  <SCORE.INTRA.DIHEDRAL.0>
13.9704

>  <SCORE.INTRA.POLAR>
0

>  <SCORE.INTRA.POLAR.0>
0

>  <SCORE.INTRA.REPUL>
0

>  <SCORE.INTRA.REPUL.0>
0

>  <SCORE.INTRA.SOLV>
0.190737

>  <SCORE.INTRA.SOLV.lig_0>
-70.9758

>  <SCORE.INTRA.VDW>
-1.29541

>  <SCORE.INTRA.VDW.0>
-2.70686

>  <SCORE.INTRA.norm>
-0.191215

>  <SCORE.RESTR>
0

>  <SCORE.RESTR.CAVITY>
0

>  <SCORE.RESTR.norm>
0

>  <SCORE.SYSTEM>
0

>  <SCORE.SYSTEM.CONST>
0

>  <SCORE.SYSTEM.DIHEDRAL>
0

>  <SCORE.SYSTEM.SOLV>
0

>  <SCORE.SYSTEM.norm>
0

>  <SCORE.heavy>
27

>  <SCORE.norm>
-0.437136

>  <RMSD>
6.414

$$$$
ligand
 OpenBabel11021811473D
libRbt.so/2013.1/901 2013/11/27
 27 29  0  0  0  0  0  0  0  0999 V2000
   46.5762   53.1999   37.5487 N   0  0  0  0  0  0  0  0  0  0  0  0
   47.0263   54.1507   36.5346 C   0  0  2  0  0  0  0  0  0  0  0  0
   46.1445   54.1913   35.2848 C   0  0  0  0  0  0  0  0  0  0  0  0
   45.8554   55.2460   34.8254 O   0  0  0  0  0  0  0  0  0  0  0  0
   48.5322   54.0758   36.2062 C   0  0  0  0  0  0  0  0  0  0  0  0
   49.2650   55.3447   35.6885 C   0  0  0  0  0  0  0  0  0  0  0  0
   48.7446   55.9224   34.3454 C   0  0  2  0  0  0  0  0  0  0  0  0
   48.9704   55.0237   33.2134 N   0  0  0  0  0  0  0  0  0  0  0  0
   49.2599   57.3722   34.0888 C   0  0  0  0  0  0  0  0  0  0  0  0
   48.5609   58.2292   32.9801 C   0  0  1  0  0  0  0  0  0  0  0  0
   49.3124   58.5918   31.7838 O   0  0  0  0  0  0  0  0  0  0  0  0
   47.2008   57.7044   32.4409 C   0  0  1  0  0  0  0  0  0  0  0  0
   46.0856   57.6873   33.3416 O   0  0  0  0  0  0  0  0  0  0  0  0
   47.0362   58.3636   31.0365 C   0  0  1  0  0  0  0  0  0  0  0  0
   46.0504   59.3564   30.8833 O   0  0  0  0  0  0  0  0  0  0  0  0
   48.4810   58.6891   30.6449 C   0  0  2  0  0  0  0  0  0  0  0  0
   46.1036   53.0528   34.4554 O   0  0  0  0  0  0  0  0  0  0  0  0
   50.7814   53.9640   29.2781 N   0  0  0  0  0  0  0  0  0  0  0  0
   50.4633   54.4155   30.5641 C   0  0  0  0  0  0  0  0  0  0  0  0
   49.8428   55.7257   30.7467 N   0  0  0  0  0  0  0  0  0  0  0  0
   49.5696   56.5138   29.6607 C   0  0  0  0  0  0  0  0  0  0  0  0
   49.8946   56.0525   28.3701 C   0  0  0  0  0  0  0  0  0  0  0  0
   50.5137   54.7470   28.1889 C   0  0  0  0  0  0  0  0  0  0  0  0
   50.8513   54.2657   26.8488 N   0  0  0  0  0  0  0  0  0  0  0  0
   49.5054   57.0688   27.4231 N   0  0  0  0  0  0  0  0  0  0  0  0
   48.9468   58.1453   28.1515 C   0  0  0  0  0  0  0  0  0  0  0  0
   48.9758   57.8199   29.5383 N   0  0  0  0  0  0  0  0  0  0  0  0
  2  1  1  1  0  0  0
  2  3  1  0  0  0  0
  2  5  1  0  0  0  0
  3  4  1  0  0  0  0
  3 17  1  0  0  0  0
  5  6  1  0  0  0  0
  7  6  1  1  0  0  0
  7  8  1  0  0  0  0
  7  9  1  0  0  0  0
 10  9  1  6  0  0  0
 10 11  1  0  0  0  0
 10 12  1  0  0  0  0
 11 16  1  0  0  0  0
 12 13  1  1  0  0  0
 12 14  1  0  0  0  0
 14 15  1  1  0  0  0
 14 16  1  0  0  0  0
 16 27  1  6  0  0  0
 18 19  2  0  0  0  0
 18 23  1  0  0  0  0
 19 20  1  0  0  0  0
 20 21  2  0  0  0  0
 21 22  1  0  0  0  0
 21 27  1  0  0  0  0
 22 23  2  0  0  0  0
 22 25  1  0  0  0  0
 23 24  1  0  0  0  0
 25 26  2  0  0  0  0
 26 27  1  0  0  0  0
M  END
>  <CHROM.1>
136.06000435,-152.61413225,-61.49163284,-65.81028602,-164.99410347,-113.31585602
37.28593647,48.39520638,56.11788966,32.08798663,-2.21155222,0.98118006,-0.74866494

>  <Name>
ligand

>  <RI>
0

>  <Rbt.Current_Directory>
/home/itssahil/PROJECTS/Mol_Feturizer/New_Systems/rnas/3GX2

>  <Rbt.Executable>
rbdock ($Id: //depot/dev/client3/rdock/2013.1/src/exe/rbdock.cxx#4 $)

>  <Rbt.Library>
libRbt.so (2013.1, Build901 2013/11/27)

>  <Rbt.Parameter_File>
/export/apps/rDock/src/rDock_2013.1_src/data/scripts/dock_solv.prm

>  <Rbt.Receptor>
prm/pocket_docking_4.prm

>  <SCORE>
-12.5852

>  <SCORE.INTER>
-13.6349

>  <SCORE.INTER.CONST>
1

>  <SCORE.INTER.POLAR>
0

>  <SCORE.INTER.ROT>
7

>  <SCORE.INTER.SOLV>
10.5824

>  <SCORE.INTER.VDW>
-20.8841

>  <SCORE.INTER.norm>
-0.504996

>  <SCORE.INTRA>
1.04964

>  <SCORE.INTRA.DIHEDRAL>
-0.611262

>  <SCORE.INTRA.DIHEDRAL.0>
13.9704

>  <SCORE.INTRA.POLAR>
0

>  <SCORE.INTRA.POLAR.0>
0

>  <SCORE.INTRA.REPUL>
0

>  <SCORE.INTRA.REPUL.0>
0

>  <SCORE.INTRA.SOLV>
5.63126

>  <SCORE.INTRA.SOLV.lig_0>
-70.9758

>  <SCORE.INTRA.VDW>
-1.46036

>  <SCORE.INTRA.VDW.0>
-2.70686

>  <SCORE.INTRA.norm>
0.0388756

>  <SCORE.RESTR>
0

>  <SCORE.RESTR.CAVITY>
0

>  <SCORE.RESTR.norm>
0

>  <SCORE.SYSTEM>
0

>  <SCORE.SYSTEM.CONST>
0

>  <SCORE.SYSTEM.DIHEDRAL>
0

>  <SCORE.SYSTEM.SOLV>
0

>  <SCORE.SYSTEM.norm>
0

>  <SCORE.heavy>
27

>  <SCORE.norm>
-0.46612

>  <RMSD>
6.421

$$$$
ligand
 OpenBabel11021811473D
libRbt.so/2013.1/901 2013/11/27
 27 29  0  0  0  0  0  0  0  0999 V2000
   45.9575   59.0891   30.8201 N   0  0  0  0  0  0  0  0  0  0  0  0
   46.0482   58.3668   32.0869 C   0  0  2  0  0  0  0  0  0  0  0  0
   47.4583   58.3247   32.6795 C   0  0  0  0  0  0  0  0  0  0  0  0
   47.8645   59.2809   33.2520 O   0  0  0  0  0  0  0  0  0  0  0  0
   45.3516   56.9899   32.0934 C   0  0  0  0  0  0  0  0  0  0  0  0
   45.2522   56.1906   33.4224 C   0  0  0  0  0  0  0  0  0  0  0  0
   44.6687   54.7573   33.3046 C   0  0  2  0  0  0  0  0  0  0  0  0
   45.1205   54.0557   32.1031 N   0  0  0  0  0  0  0  0  0  0  0  0
   43.1188   54.7362   33.4798 C   0  0  0  0  0  0  0  0  0  0  0  0
   42.2220   55.1049   32.2502 C   0  0  1  0  0  0  0  0  0  0  0  0
   42.5388   56.2974   31.4726 O   0  0  0  0  0  0  0  0  0  0  0  0
   41.9995   53.9942   31.1858 C   0  0  1  0  0  0  0  0  0  0  0  0
   41.2505   52.8353   31.5745 O   0  0  0  0  0  0  0  0  0  0  0  0
   41.6074   54.7524   29.8799 C   0  0  1  0  0  0  0  0  0  0  0  0
   40.2802   54.6423   29.4244 O   0  0  0  0  0  0  0  0  0  0  0  0
   42.1974   56.1474   30.1092 C   0  0  2  0  0  0  0  0  0  0  0  0
   48.0304   57.0681   32.9611 O   0  0  0  0  0  0  0  0  0  0  0  0
   46.9081   54.2998   28.1386 N   0  0  0  0  0  0  0  0  0  0  0  0
   46.0455   53.6518   29.0301 C   0  0  0  0  0  0  0  0  0  0  0  0
   44.8099   54.3044   29.4574 N   0  0  0  0  0  0  0  0  0  0  0  0
   44.4923   55.5500   28.9856 C   0  0  0  0  0  0  0  0  0  0  0  0
   45.3669   56.1960   28.0901 C   0  0  0  0  0  0  0  0  0  0  0  0
   46.5984   55.5453   27.6653 C   0  0  0  0  0  0  0  0  0  0  0  0
   47.5079   56.2144   26.7343 N   0  0  0  0  0  0  0  0  0  0  0  0
   44.7968   57.4789   27.7587 N   0  0  0  0  0  0  0  0  0  0  0  0
   43.5754   57.6025   28.4619 C   0  0  0  0  0  0  0  0  0  0  0  0
   43.3683   56.4176   29.2256 N   0  0  0  0  0  0  0  0  0  0  0  0
  2  1  1  6  0  0  0
  2  3  1  0  0  0  0
  2  5  1  0  0  0  0
  3  4  1  0  0  0  0
  3 17  1  0  0  0  0
  5  6  1  0  0  0  0
  7  6  1  6  0  0  0
  7  8  1  0  0  0  0
  7  9  1  0  0  0  0
 10  9  1  1  0  0  0
 10 11  1  0  0  0  0
 10 12  1  0  0  0  0
 11 16  1  0  0  0  0
 12 13  1  1  0  0  0
 12 14  1  0  0  0  0
 14 15  1  1  0  0  0
 14 16  1  0  0  0  0
 16 27  1  6  0  0  0
 18 19  2  0  0  0  0
 18 23  1  0  0  0  0
 19 20  1  0  0  0  0
 20 21  2  0  0  0  0
 21 22  1  0  0  0  0
 21 27  1  0  0  0  0
 22 23  2  0  0  0  0
 22 25  1  0  0  0  0
 23 24  1  0  0  0  0
 25 26  2  0  0  0  0
 26 27  1  0  0  0  0
M  END
>  <CHROM.1>
78.90789124,-173.74953318,-173.89137900,39.05336814,81.31995259,-47.42066018
75.82330247,44.59201013,55.93050223,30.64851400,-0.25678203,-0.53734585,-1.74403250

>  <Name>
ligand

>  <RI>
0

>  <Rbt.Current_Directory>
/home/itssahil/PROJECTS/Mol_Feturizer/New_Systems/rnas/3GX2

>  <Rbt.Executable>
rbdock ($Id: //depot/dev/client3/rdock/2013.1/src/exe/rbdock.cxx#4 $)

>  <Rbt.Library>
libRbt.so (2013.1, Build901 2013/11/27)

>  <Rbt.Parameter_File>
/export/apps/rDock/src/rDock_2013.1_src/data/scripts/dock_solv.prm

>  <Rbt.Receptor>
prm/pocket_docking_7.prm

>  <SCORE>
-7.64324

>  <SCORE.INTER>
-5.64388

>  <SCORE.INTER.CONST>
1

>  <SCORE.INTER.POLAR>
0

>  <SCORE.INTER.ROT>
7

>  <SCORE.INTER.SOLV>
12.6548

>  <SCORE.INTER.VDW>
-16.2475

>  <SCORE.INTER.norm>
-0.209033

>  <SCORE.INTRA>
-1.99936

>  <SCORE.INTRA.DIHEDRAL>
-5.61036

>  <SCORE.INTRA.DIHEDRAL.0>
13.9704

>  <SCORE.INTRA.POLAR>
0

>  <SCORE.INTRA.POLAR.0>
0

>  <SCORE.INTRA.REPUL>
0

>  <SCORE.INTRA.REPUL.0>
0

>  <SCORE.INTRA.SOLV>
4.47393

>  <SCORE.INTRA.SOLV.lig_0>
-70.9758

>  <SCORE.INTRA.VDW>
-1.43115

>  <SCORE.INTRA.VDW.0>
-2.70686

>  <SCORE.INTRA.norm>
-0.0740505

>  <SCORE.RESTR>
0

>  <SCORE.RESTR.CAVITY>
0

>  <SCORE.RESTR.norm>
0

>  <SCORE.SYSTEM>
0

>  <SCORE.SYSTEM.CONST>
0

>  <SCORE.SYSTEM.DIHEDRAL>
0

>  <SCORE.SYSTEM.SOLV>
0

>  <SCORE.SYSTEM.norm>
0

>  <SCORE.heavy>
27

>  <SCORE.norm>
-0.283083

>  <RMSD>
6.428

$$$$
ligand
 OpenBabel11021811473D
libRbt.so/2013.1/901 2013/11/27
 27 29  0  0  0  0  0  0  0  0999 V2000
   47.6813   53.6596   33.2827 N   0  0  0  0  0  0  0  0  0  0  0  0
   48.2737   53.3624   34.5849 C   0  0  2  0  0  0  0  0  0  0  0  0
   47.2497   53.1823   35.7076 C   0  0  0  0  0  0  0  0  0  0  0  0
   46.1624   52.7977   35.4308 O   0  0  0  0  0  0  0  0  0  0  0  0
   49.4471   54.2822   34.9826 C   0  0  0  0  0  0  0  0  0  0  0  0
   49.2370   55.8218   35.0049 C   0  0  0  0  0  0  0  0  0  0  0  0
   49.0615   56.4979   33.6191 C   0  0  2  0  0  0  0  0  0  0  0  0
   50.1735   56.2265   32.7082 N   0  0  0  0  0  0  0  0  0  0  0  0
   48.7278   58.0167   33.7429 C   0  0  0  0  0  0  0  0  0  0  0  0
   48.2092   58.7742   32.4742 C   0  0  1  0  0  0  0  0  0  0  0  0
   49.0585   58.8407   31.2904 O   0  0  0  0  0  0  0  0  0  0  0  0
   46.8144   58.3575   31.9294 C   0  0  1  0  0  0  0  0  0  0  0  0
   45.6681   58.6312   32.7456 O   0  0  0  0  0  0  0  0  0  0  0  0
   46.8097   58.8037   30.4345 C   0  0  1  0  0  0  0  0  0  0  0  0
   45.9831   59.8826   30.0690 O   0  0  0  0  0  0  0  0  0  0  0  0
   48.3024   58.8679   30.0965 C   0  0  2  0  0  0  0  0  0  0  0  0
   47.7215   53.0024   37.0232 O   0  0  0  0  0  0  0  0  0  0  0  0
   49.4608   53.5926   29.5334 N   0  0  0  0  0  0  0  0  0  0  0  0
   49.0742   54.2594   30.7016 C   0  0  0  0  0  0  0  0  0  0  0  0
   48.8005   55.6943   30.6685 N   0  0  0  0  0  0  0  0  0  0  0  0
   48.9198   56.3895   29.4947 C   0  0  0  0  0  0  0  0  0  0  0  0
   49.3113   55.7111   28.3239 C   0  0  0  0  0  0  0  0  0  0  0  0
   49.5846   54.2812   28.3579 C   0  0  0  0  0  0  0  0  0  0  0  0
   49.9904   53.5745   27.1424 N   0  0  0  0  0  0  0  0  0  0  0  0
   49.3585   56.6710   27.2482 N   0  0  0  0  0  0  0  0  0  0  0  0
   48.9959   57.9314   27.7788 C   0  0  0  0  0  0  0  0  0  0  0  0
   48.7186   57.7774   29.1679 N   0  0  0  0  0  0  0  0  0  0  0  0
  2  1  1  6  0  0  0
  2  3  1  0  0  0  0
  2  5  1  0  0  0  0
  3  4  1  0  0  0  0
  3 17  1  0  0  0  0
  5  6  1  0  0  0  0
  7  6  1  1  0  0  0
  7  8  1  0  0  0  0
  7  9  1  0  0  0  0
 10  9  1  1  0  0  0
 10 11  1  0  0  0  0
 10 12  1  0  0  0  0
 11 16  1  0  0  0  0
 12 13  1  1  0  0  0
 12 14  1  0  0  0  0
 14 15  1  1  0  0  0
 14 16  1  0  0  0  0
 16 27  1  6  0  0  0
 18 19  2  0  0  0  0
 18 23  1  0  0  0  0
 19 20  1  0  0  0  0
 20 21  2  0  0  0  0
 21 22  1  0  0  0  0
 21 27  1  0  0  0  0
 22 23  2  0  0  0  0
 22 25  1  0  0  0  0
 23 24  1  0  0  0  0
 25 26  2  0  0  0  0
 26 27  1  0  0  0  0
M  END
>  <CHROM.1>
27.77513388,55.50753480,-69.88592093,-55.96096583,-166.56994440,-60.57910872
47.41589889,48.35016734,56.11807327,31.71076365,-1.84305890,1.17852163,-0.83533930

>  <Name>
ligand

>  <RI>
0

>  <Rbt.Current_Directory>
/home/itssahil/PROJECTS/Mol_Feturizer/New_Systems/rnas/3GX2

>  <Rbt.Executable>
rbdock ($Id: //depot/dev/client3/rdock/2013.1/src/exe/rbdock.cxx#4 $)

>  <Rbt.Library>
libRbt.so (2013.1, Build901 2013/11/27)

>  <Rbt.Parameter_File>
/export/apps/rDock/src/rDock_2013.1_src/data/scripts/dock_solv.prm

>  <Rbt.Receptor>
prm/pocket_docking_3.prm

>  <SCORE>
-11.259

>  <SCORE.INTER>
-9.67262

>  <SCORE.INTER.CONST>
1

>  <SCORE.INTER.POLAR>
0

>  <SCORE.INTER.ROT>
7

>  <SCORE.INTER.SOLV>
12.6357

>  <SCORE.INTER.VDW>
-18.927

>  <SCORE.INTER.norm>
-0.358245

>  <SCORE.INTRA>
-1.60454

>  <SCORE.INTRA.DIHEDRAL>
-7.84235

>  <SCORE.INTRA.DIHEDRAL.0>
13.9704

>  <SCORE.INTRA.POLAR>
0

>  <SCORE.INTRA.POLAR.0>
0

>  <SCORE.INTRA.REPUL>
0

>  <SCORE.INTRA.REPUL.0>
0

>  <SCORE.INTRA.SOLV>
6.58849

>  <SCORE.INTRA.SOLV.lig_0>
-70.9758

>  <SCORE.INTRA.VDW>
-0.977607

>  <SCORE.INTRA.VDW.0>
-2.70686

>  <SCORE.INTRA.norm>
-0.0594272

>  <SCORE.RESTR>
0.0181254

>  <SCORE.RESTR.CAVITY>
0.0181254

>  <SCORE.RESTR.norm>
0.000671312

>  <SCORE.SYSTEM>
0

>  <SCORE.SYSTEM.CONST>
0

>  <SCORE.SYSTEM.DIHEDRAL>
0

>  <SCORE.SYSTEM.SOLV>
0

>  <SCORE.SYSTEM.norm>
0

>  <SCORE.heavy>
27

>  <SCORE.norm>
-0.417001

>  <RMSD>
6.450

$$$$
ligand
 OpenBabel11021811483D
libRbt.so/2013.1/901 2013/11/27
 27 29  0  0  0  0  0  0  0  0999 V2000
   48.5315   59.7663   31.4633 N   0  0  0  0  0  0  0  0  0  0  0  0
   49.0770   58.7878   30.5252 C   0  0  2  0  0  0  0  0  0  0  0  0
   48.3052   58.6919   29.2075 C   0  0  0  0  0  0  0  0  0  0  0  0
   48.8114   58.1364   28.2899 O   0  0  0  0  0  0  0  0  0  0  0  0
   49.3868   57.4081   31.1428 C   0  0  0  0  0  0  0  0  0  0  0  0
   48.2488   56.6093   31.8372 C   0  0  0  0  0  0  0  0  0  0  0  0
   47.8007   57.1426   33.2240 C   0  0  2  0  0  0  0  0  0  0  0  0
   48.7214   56.7755   34.2999 N   0  0  0  0  0  0  0  0  0  0  0  0
   46.3155   56.7857   33.5403 C   0  0  0  0  0  0  0  0  0  0  0  0
   45.8917   55.2781   33.5378 C   0  0  1  0  0  0  0  0  0  0  0  0
   46.5704   54.3485   34.4337 O   0  0  0  0  0  0  0  0  0  0  0  0
   44.3801   54.9738   33.7337 C   0  0  1  0  0  0  0  0  0  0  0  0
   43.4754   55.3848   32.7004 O   0  0  0  0  0  0  0  0  0  0  0  0
   44.3235   53.5050   34.2566 C   0  0  1  0  0  0  0  0  0  0  0  0
   43.8141   52.5155   33.3950 O   0  0  0  0  0  0  0  0  0  0  0  0
   45.7151   53.3097   34.8665 C   0  0  2  0  0  0  0  0  0  0  0  0
   46.9015   58.8099   29.2421 O   0  0  0  0  0  0  0  0  0  0  0  0
   48.3972   54.0867   39.5237 N   0  0  0  0  0  0  0  0  0  0  0  0
   48.8636   54.3160   38.2242 C   0  0  0  0  0  0  0  0  0  0  0  0
   47.9974   54.0485   37.0783 N   0  0  0  0  0  0  0  0  0  0  0  0
   46.7275   53.5747   37.2729 C   0  0  0  0  0  0  0  0  0  0  0  0
   46.2666   53.3448   38.5839 C   0  0  0  0  0  0  0  0  0  0  0  0
   47.1307   53.6109   39.7255 C   0  0  0  0  0  0  0  0  0  0  0  0
   46.6534   53.3736   41.0883 N   0  0  0  0  0  0  0  0  0  0  0  0
   44.9136   52.8516   38.5000 N   0  0  0  0  0  0  0  0  0  0  0  0
   44.5639   52.7835   37.1308 C   0  0  0  0  0  0  0  0  0  0  0  0
   45.6730   53.2289   36.3553 N   0  0  0  0  0  0  0  0  0  0  0  0
  2  1  1  1  0  0  0
  2  3  1  0  0  0  0
  2  5  1  0  0  0  0
  3  4  1  0  0  0  0
  3 17  1  0  0  0  0
  5  6  1  0  0  0  0
  7  6  1  6  0  0  0
  7  8  1  0  0  0  0
  7  9  1  0  0  0  0
 10  9  1  1  0  0  0
 10 11  1  0  0  0  0
 10 12  1  0  0  0  0
 11 16  1  0  0  0  0
 12 13  1  6  0  0  0
 12 14  1  0  0  0  0
 14 15  1  6  0  0  0
 14 16  1  0  0  0  0
 16 27  1  1  0  0  0
 18 19  2  0  0  0  0
 18 23  1  0  0  0  0
 19 20  1  0  0  0  0
 20 21  2  0  0  0  0
 21 22  1  0  0  0  0
 21 27  1  0  0  0  0
 22 23  2  0  0  0  0
 22 25  1  0  0  0  0
 23 24  1  0  0  0  0
 25 26  2  0  0  0  0
 26 27  1  0  0  0  0
M  END
>  <CHROM.1>
165.09772835,57.88735176,-73.64650026,-78.02410932,57.72742374,58.14406374
-30.21492933,46.77904747,55.36333027,34.41867262,-1.35425970,0.55216927,1.99732179

>  <Name>
ligand

>  <RI>
0

>  <Rbt.Current_Directory>
/home/itssahil/PROJECTS/Mol_Feturizer/New_Systems/rnas/3GX2

>  <Rbt.Executable>
rbdock ($Id: //depot/dev/client3/rdock/2013.1/src/exe/rbdock.cxx#4 $)

>  <Rbt.Library>
libRbt.so (2013.1, Build901 2013/11/27)

>  <Rbt.Parameter_File>
/export/apps/rDock/src/rDock_2013.1_src/data/scripts/dock_solv.prm

>  <Rbt.Receptor>
prm/pocket_docking_8.prm

>  <SCORE>
-11.5628

>  <SCORE.INTER>
-9.52856

>  <SCORE.INTER.CONST>
1

>  <SCORE.INTER.POLAR>
0

>  <SCORE.INTER.ROT>
7

>  <SCORE.INTER.SOLV>
14.8739

>  <SCORE.INTER.VDW>
-19.577

>  <SCORE.INTER.norm>
-0.35291

>  <SCORE.INTRA>
-2.03423

>  <SCORE.INTRA.DIHEDRAL>
-7.28271

>  <SCORE.INTRA.DIHEDRAL.0>
13.9704

>  <SCORE.INTRA.POLAR>
0

>  <SCORE.INTRA.POLAR.0>
0

>  <SCORE.INTRA.REPUL>
0

>  <SCORE.INTRA.REPUL.0>
0

>  <SCORE.INTRA.SOLV>
3.08272

>  <SCORE.INTRA.SOLV.lig_0>
-70.9758

>  <SCORE.INTRA.VDW>
0.0657646

>  <SCORE.INTRA.VDW.0>
-2.70686

>  <SCORE.INTRA.norm>
-0.0753419

>  <SCORE.RESTR>
0

>  <SCORE.RESTR.CAVITY>
0

>  <SCORE.RESTR.norm>
0

>  <SCORE.SYSTEM>
0

>  <SCORE.SYSTEM.CONST>
0

>  <SCORE.SYSTEM.DIHEDRAL>
0

>  <SCORE.SYSTEM.SOLV>
0

>  <SCORE.SYSTEM.norm>
0

>  <SCORE.heavy>
27

>  <SCORE.norm>
-0.428251

>  <RMSD>
6.483

$$$$
ligand
 OpenBabel11021811473D
libRbt.so/2013.1/901 2013/11/27
 27 29  0  0  0  0  0  0  0  0999 V2000
   47.7506   54.4613   37.3865 N   0  0  0  0  0  0  0  0  0  0  0  0
   47.7600   54.4819   35.9256 C   0  0  2  0  0  0  0  0  0  0  0  0
   46.8923   53.3980   35.2825 C   0  0  0  0  0  0  0  0  0  0  0  0
   46.8401   52.3304   35.7966 O   0  0  0  0  0  0  0  0  0  0  0  0
   49.1638   54.5828   35.2929 C   0  0  0  0  0  0  0  0  0  0  0  0
   49.3199   54.4384   33.7534 C   0  0  0  0  0  0  0  0  0  0  0  0
   48.6673   55.5599   32.9020 C   0  0  2  0  0  0  0  0  0  0  0  0
   48.6929   55.2737   31.4676 N   0  0  0  0  0  0  0  0  0  0  0  0
   49.2309   56.9709   33.2552 C   0  0  0  0  0  0  0  0  0  0  0  0
   48.8802   58.1731   32.3149 C   0  0  1  0  0  0  0  0  0  0  0  0
   49.6350   58.3520   31.0799 O   0  0  0  0  0  0  0  0  0  0  0  0
   47.3931   58.3183   31.8866 C   0  0  1  0  0  0  0  0  0  0  0  0
   46.4325   58.6377   32.9017 O   0  0  0  0  0  0  0  0  0  0  0  0
   47.4262   59.1635   30.5756 C   0  0  1  0  0  0  0  0  0  0  0  0
   46.9337   60.4810   30.6255 O   0  0  0  0  0  0  0  0  0  0  0  0
   48.8471   58.9241   30.0553 C   0  0  2  0  0  0  0  0  0  0  0  0
   45.8418   53.7966   34.4320 O   0  0  0  0  0  0  0  0  0  0  0  0
   50.8551   54.5064   27.6183 N   0  0  0  0  0  0  0  0  0  0  0  0
   51.1388   54.9705   28.9078 C   0  0  0  0  0  0  0  0  0  0  0  0
   50.5017   56.1884   29.4037 N   0  0  0  0  0  0  0  0  0  0  0  0
   49.6248   56.8773   28.6090 C   0  0  0  0  0  0  0  0  0  0  0  0
   49.3462   56.4044   27.3118 C   0  0  0  0  0  0  0  0  0  0  0  0
   49.9821   55.1909   26.8180 C   0  0  0  0  0  0  0  0  0  0  0  0
   49.6932   54.6976   25.4710 N   0  0  0  0  0  0  0  0  0  0  0  0
   48.4035   57.3095   26.7010 N   0  0  0  0  0  0  0  0  0  0  0  0
   48.1185   58.3312   27.6372 C   0  0  0  0  0  0  0  0  0  0  0  0
   48.8634   58.0802   28.8255 N   0  0  0  0  0  0  0  0  0  0  0  0
  2  1  1  1  0  0  0
  2  3  1  0  0  0  0
  2  5  1  0  0  0  0
  3  4  1  0  0  0  0
  3 17  1  0  0  0  0
  5  6  1  0  0  0  0
  7  6  1  1  0  0  0
  7  8  1  0  0  0  0
  7  9  1  0  0  0  0
 10  9  1  6  0  0  0
 10 11  1  0  0  0  0
 10 12  1  0  0  0  0
 11 16  1  0  0  0  0
 12 13  1  1  0  0  0
 12 14  1  0  0  0  0
 14 15  1  1  0  0  0
 14 16  1  0  0  0  0
 16 27  1  6  0  0  0
 18 19  2  0  0  0  0
 18 23  1  0  0  0  0
 19 20  1  0  0  0  0
 20 21  2  0  0  0  0
 21 22  1  0  0  0  0
 21 27  1  0  0  0  0
 22 23  2  0  0  0  0
 22 25  1  0  0  0  0
 23 24  1  0  0  0  0
 25 26  2  0  0  0  0
 26 27  1  0  0  0  0
M  END
>  <CHROM.1>
-36.78702012,172.55844614,65.63696318,-172.26292650,168.78346357,-80.53286809
-3.80654334,48.54566651,56.29165976,31.30355433,-2.13800472,1.15037394,-0.72031003

>  <Name>
ligand

>  <RI>
0

>  <Rbt.Current_Directory>
/home/itssahil/PROJECTS/Mol_Feturizer/New_Systems/rnas/3GX2

>  <Rbt.Executable>
rbdock ($Id: //depot/dev/client3/rdock/2013.1/src/exe/rbdock.cxx#4 $)

>  <Rbt.Library>
libRbt.so (2013.1, Build901 2013/11/27)

>  <Rbt.Parameter_File>
/export/apps/rDock/src/rDock_2013.1_src/data/scripts/dock_solv.prm

>  <Rbt.Receptor>
prm/pocket_docking_5.prm

>  <SCORE>
-13.4574

>  <SCORE.INTER>
-11.41

>  <SCORE.INTER.CONST>
1

>  <SCORE.INTER.POLAR>
0

>  <SCORE.INTER.ROT>
7

>  <SCORE.INTER.SOLV>
12.801

>  <SCORE.INTER.VDW>
-20.1403

>  <SCORE.INTER.norm>
-0.422592

>  <SCORE.INTRA>
-2.04737

>  <SCORE.INTRA.DIHEDRAL>
-7.22265

>  <SCORE.INTRA.DIHEDRAL.0>
13.9704

>  <SCORE.INTRA.POLAR>
0

>  <SCORE.INTRA.POLAR.0>
0

>  <SCORE.INTRA.REPUL>
0

>  <SCORE.INTRA.REPUL.0>
0

>  <SCORE.INTRA.SOLV>
3.45657

>  <SCORE.INTRA.SOLV.lig_0>
-70.9758

>  <SCORE.INTRA.VDW>
-0.16433

>  <SCORE.INTRA.VDW.0>
-2.70686

>  <SCORE.INTRA.norm>
-0.0758284

>  <SCORE.RESTR>
0

>  <SCORE.RESTR.CAVITY>
0

>  <SCORE.RESTR.norm>
0

>  <SCORE.SYSTEM>
0

>  <SCORE.SYSTEM.CONST>
0

>  <SCORE.SYSTEM.DIHEDRAL>
0

>  <SCORE.SYSTEM.SOLV>
0

>  <SCORE.SYSTEM.norm>
0

>  <SCORE.heavy>
27

>  <SCORE.norm>
-0.498421

>  <RMSD>
6.493

$$$$
ligand
 OpenBabel11021811473D
libRbt.so/2013.1/901 2013/11/27
 27 29  0  0  0  0  0  0  0  0999 V2000
   49.0735   54.6642   32.6933 N   0  0  0  0  0  0  0  0  0  0  0  0
   49.5879   55.5177   33.7619 C   0  0  2  0  0  0  0  0  0  0  0  0
   48.9647   55.2429   35.1321 C   0  0  0  0  0  0  0  0  0  0  0  0
   47.7839   55.1689   35.2165 O   0  0  0  0  0  0  0  0  0  0  0  0
   49.6406   57.0205   33.4154 C   0  0  0  0  0  0  0  0  0  0  0  0
   48.3226   57.7750   33.0859 C   0  0  0  0  0  0  0  0  0  0  0  0
   48.4907   59.1557   32.3976 C   0  0  2  0  0  0  0  0  0  0  0  0
   49.4662   60.0128   33.0712 N   0  0  0  0  0  0  0  0  0  0  0  0
   47.1217   59.8618   32.1517 C   0  0  0  0  0  0  0  0  0  0  0  0
   46.1920   59.3161   31.0158 C   0  0  1  0  0  0  0  0  0  0  0  0
   46.6016   59.4760   29.6251 O   0  0  0  0  0  0  0  0  0  0  0  0
   45.7516   57.8294   31.1231 C   0  0  1  0  0  0  0  0  0  0  0  0
   44.8905   57.4633   32.2093 O   0  0  0  0  0  0  0  0  0  0  0  0
   45.3655   57.4117   29.6704 C   0  0  1  0  0  0  0  0  0  0  0  0
   44.0055   57.1872   29.3861 O   0  0  0  0  0  0  0  0  0  0  0  0
   46.1450   58.4134   28.8126 C   0  0  2  0  0  0  0  0  0  0  0  0
   49.7583   54.6229   36.1177 O   0  0  0  0  0  0  0  0  0  0  0  0
   50.9013   55.8202   29.1865 N   0  0  0  0  0  0  0  0  0  0  0  0
   50.1035   56.2910   30.2357 C   0  0  0  0  0  0  0  0  0  0  0  0
   48.8435   56.9725   29.9476 N   0  0  0  0  0  0  0  0  0  0  0  0
   48.4396   57.1507   28.6514 C   0  0  0  0  0  0  0  0  0  0  0  0
   49.2494   56.6755   27.6014 C   0  0  0  0  0  0  0  0  0  0  0  0
   50.5053   55.9970   27.8892 C   0  0  0  0  0  0  0  0  0  0  0  0
   51.3475   55.5018   26.7997 N   0  0  0  0  0  0  0  0  0  0  0  0
   48.5951   56.9938   26.3558 N   0  0  0  0  0  0  0  0  0  0  0  0
   47.3883   57.6656   26.6621 C   0  0  0  0  0  0  0  0  0  0  0  0
   47.2731   57.7707   28.0784 N   0  0  0  0  0  0  0  0  0  0  0  0
  2  1  1  6  0  0  0
  2  3  1  0  0  0  0
  2  5  1  0  0  0  0
  3  4  1  0  0  0  0
  3 17  1  0  0  0  0
  5  6  1  0  0  0  0
  7  6  1  1  0  0  0
  7  8  1  0  0  0  0
  7  9  1  0  0  0  0
 10  9  1  1  0  0  0
 10 11  1  0  0  0  0
 10 12  1  0  0  0  0
 11 16  1  0  0  0  0
 12 13  1  1  0  0  0
 12 14  1  0  0  0  0
 14 15  1  1  0  0  0
 14 16  1  0  0  0  0
 16 27  1  1  0  0  0
 18 19  2  0  0  0  0
 18 23  1  0  0  0  0
 19 20  1  0  0  0  0
 20 21  2  0  0  0  0
 21 22  1  0  0  0  0
 21 27  1  0  0  0  0
 22 23  2  0  0  0  0
 22 25  1  0  0  0  0
 23 24  1  0  0  0  0
 25 26  2  0  0  0  0
 26 27  1  0  0  0  0
M  END
>  <CHROM.1>
-48.57278108,61.74133523,-164.59535455,-48.69242665,-73.36439532,-68.68210412
58.81549344,48.09044129,57.14067882,30.84982741,-1.41811385,0.55765001,-1.46256376

>  <Name>
ligand

>  <RI>
0

>  <Rbt.Current_Directory>
/home/itssahil/PROJECTS/Mol_Feturizer/New_Systems/rnas/3GX2

>  <Rbt.Executable>
rbdock ($Id: //depot/dev/client3/rdock/2013.1/src/exe/rbdock.cxx#4 $)

>  <Rbt.Library>
libRbt.so (2013.1, Build901 2013/11/27)

>  <Rbt.Parameter_File>
/export/apps/rDock/src/rDock_2013.1_src/data/scripts/dock_solv.prm

>  <Rbt.Receptor>
prm/pocket_docking_7.prm

>  <SCORE>
-15.6466

>  <SCORE.INTER>
-11.0206

>  <SCORE.INTER.CONST>
1

>  <SCORE.INTER.POLAR>
0

>  <SCORE.INTER.ROT>
7

>  <SCORE.INTER.SOLV>
20.6863

>  <SCORE.INTER.VDW>
-22.5091

>  <SCORE.INTER.norm>
-0.408169

>  <SCORE.INTRA>
-4.626

>  <SCORE.INTRA.DIHEDRAL>
-7.36052

>  <SCORE.INTRA.DIHEDRAL.0>
13.9704

>  <SCORE.INTRA.POLAR>
0

>  <SCORE.INTRA.POLAR.0>
0

>  <SCORE.INTRA.REPUL>
0

>  <SCORE.INTRA.REPUL.0>
0

>  <SCORE.INTRA.SOLV>
1.29385

>  <SCORE.INTRA.SOLV.lig_0>
-70.9758

>  <SCORE.INTRA.VDW>
-1.59267

>  <SCORE.INTRA.VDW.0>
-2.70686

>  <SCORE.INTRA.norm>
-0.171333

>  <SCORE.RESTR>
0

>  <SCORE.RESTR.CAVITY>
0

>  <SCORE.RESTR.norm>
0

>  <SCORE.SYSTEM>
0

>  <SCORE.SYSTEM.CONST>
0

>  <SCORE.SYSTEM.DIHEDRAL>
0

>  <SCORE.SYSTEM.SOLV>
0

>  <SCORE.SYSTEM.norm>
0

>  <SCORE.heavy>
27

>  <SCORE.norm>
-0.579503

>  <RMSD>
6.499

$$$$
ligand
 OpenBabel11021811473D
libRbt.so/2013.1/901 2013/11/27
 27 29  0  0  0  0  0  0  0  0999 V2000
   46.2367   54.2216   33.9461 N   0  0  0  0  0  0  0  0  0  0  0  0
   47.0999   53.3827   34.7744 C   0  0  2  0  0  0  0  0  0  0  0  0
   46.9527   53.6313   36.2770 C   0  0  0  0  0  0  0  0  0  0  0  0
   47.5135   54.5589   36.7587 O   0  0  0  0  0  0  0  0  0  0  0  0
   48.5721   53.3245   34.3156 C   0  0  0  0  0  0  0  0  0  0  0  0
   49.3894   54.6414   34.2023 C   0  0  0  0  0  0  0  0  0  0  0  0
   48.9226   55.6315   33.1022 C   0  0  2  0  0  0  0  0  0  0  0  0
   49.1223   55.1139   31.7485 N   0  0  0  0  0  0  0  0  0  0  0  0
   49.5153   57.0599   33.3054 C   0  0  0  0  0  0  0  0  0  0  0  0
   49.0092   58.2182   32.3809 C   0  0  1  0  0  0  0  0  0  0  0  0
   49.6861   58.4609   31.1120 O   0  0  0  0  0  0  0  0  0  0  0  0
   47.4970   58.2193   32.0216 C   0  0  1  0  0  0  0  0  0  0  0  0
   46.5580   58.4519   33.0796 O   0  0  0  0  0  0  0  0  0  0  0  0
   47.3894   59.0564   30.7094 C   0  0  1  0  0  0  0  0  0  0  0  0
   46.7768   60.3215   30.7804 O   0  0  0  0  0  0  0  0  0  0  0  0
   48.8012   58.9499   30.1242 C   0  0  2  0  0  0  0  0  0  0  0  0
   45.8300   53.0954   36.9387 O   0  0  0  0  0  0  0  0  0  0  0  0
   50.7849   54.4803   27.7631 N   0  0  0  0  0  0  0  0  0  0  0  0
   51.0331   54.9386   29.0620 C   0  0  0  0  0  0  0  0  0  0  0  0
   50.4092   56.1727   29.5340 N   0  0  0  0  0  0  0  0  0  0  0  0
   49.5793   56.8825   28.7078 C   0  0  0  0  0  0  0  0  0  0  0  0
   49.3364   56.4153   27.4013 C   0  0  0  0  0  0  0  0  0  0  0  0
   49.9591   55.1857   26.9314 C   0  0  0  0  0  0  0  0  0  0  0  0
   49.7072   54.6982   25.5748 N   0  0  0  0  0  0  0  0  0  0  0  0
   48.4397   57.3431   26.7564 N   0  0  0  0  0  0  0  0  0  0  0  0
   48.1465   58.3727   27.6813 C   0  0  0  0  0  0  0  0  0  0  0  0
   48.8411   58.1044   28.8960 N   0  0  0  0  0  0  0  0  0  0  0  0
  2  1  1  6  0  0  0
  2  3  1  0  0  0  0
  2  5  1  0  0  0  0
  3  4  1  0  0  0  0
  3 17  1  0  0  0  0
  5  6  1  0  0  0  0
  7  6  1  1  0  0  0
  7  8  1  0  0  0  0
  7  9  1  0  0  0  0
 10  9  1  6  0  0  0
 10 11  1  0  0  0  0
 10 12  1  0  0  0  0
 11 16  1  0  0  0  0
 12 13  1  1  0  0  0
 12 14  1  0  0  0  0
 14 15  1  1  0  0  0
 14 16  1  0  0  0  0
 16 27  1  6  0  0  0
 18 19  2  0  0  0  0
 18 23  1  0  0  0  0
 19 20  1  0  0  0  0
 20 21  2  0  0  0  0
 21 22  1  0  0  0  0
 21 27  1  0  0  0  0
 22 23  2  0  0  0  0
 22 25  1  0  0  0  0
 23 24  1  0  0  0  0
 25 26  2  0  0  0  0
 26 27  1  0  0  0  0
M  END
>  <CHROM.1>
-80.31624444,57.79356911,-66.44061428,-66.60381399,-172.85442089,-88.72824217
4.55263271,48.50818679,56.26441060,31.38240473,-2.20550508,1.13131337,-0.65638716

>  <Name>
ligand

>  <RI>
0

>  <Rbt.Current_Directory>
/home/itssahil/PROJECTS/Mol_Feturizer/New_Systems/rnas/3GX2

>  <Rbt.Executable>
rbdock ($Id: //depot/dev/client3/rdock/2013.1/src/exe/rbdock.cxx#4 $)

>  <Rbt.Library>
libRbt.so (2013.1, Build901 2013/11/27)

>  <Rbt.Parameter_File>
/export/apps/rDock/src/rDock_2013.1_src/data/scripts/dock_solv.prm

>  <Rbt.Receptor>
prm/pocket_docking_4.prm

>  <SCORE>
-13.3651

>  <SCORE.INTER>
-12.6188

>  <SCORE.INTER.CONST>
1

>  <SCORE.INTER.POLAR>
0

>  <SCORE.INTER.ROT>
7

>  <SCORE.INTER.SOLV>
9.88165

>  <SCORE.INTER.VDW>
-19.9731

>  <SCORE.INTER.norm>
-0.467363

>  <SCORE.INTRA>
-0.746316

>  <SCORE.INTRA.DIHEDRAL>
-6.03413

>  <SCORE.INTRA.DIHEDRAL.0>
13.9704

>  <SCORE.INTRA.POLAR>
0

>  <SCORE.INTRA.POLAR.0>
0

>  <SCORE.INTRA.REPUL>
0

>  <SCORE.INTRA.REPUL.0>
0

>  <SCORE.INTRA.SOLV>
5.95509

>  <SCORE.INTRA.SOLV.lig_0>
-70.9758

>  <SCORE.INTRA.VDW>
-0.706797

>  <SCORE.INTRA.VDW.0>
-2.70686

>  <SCORE.INTRA.norm>
-0.0276413

>  <SCORE.RESTR>
0

>  <SCORE.RESTR.CAVITY>
0

>  <SCORE.RESTR.norm>
0

>  <SCORE.SYSTEM>
0

>  <SCORE.SYSTEM.CONST>
0

>  <SCORE.SYSTEM.DIHEDRAL>
0

>  <SCORE.SYSTEM.SOLV>
0

>  <SCORE.SYSTEM.norm>
0

>  <SCORE.heavy>
27

>  <SCORE.norm>
-0.495004

>  <RMSD>
6.506

$$$$
ligand
 OpenBabel11021811473D
libRbt.so/2013.1/901 2013/11/27
 27 29  0  0  0  0  0  0  0  0999 V2000
   44.4596   55.1134   33.7688 N   0  0  0  0  0  0  0  0  0  0  0  0
   45.1183   54.1882   34.6881 C   0  0  2  0  0  0  0  0  0  0  0  0
   44.2739   53.8180   35.9093 C   0  0  0  0  0  0  0  0  0  0  0  0
   43.6865   54.6775   36.4776 O   0  0  0  0  0  0  0  0  0  0  0  0
   46.5690   54.5674   35.0523 C   0  0  0  0  0  0  0  0  0  0  0  0
   47.6525   54.5993   33.9387 C   0  0  0  0  0  0  0  0  0  0  0  0
   47.5159   55.7427   32.8983 C   0  0  2  0  0  0  0  0  0  0  0  0
   48.3548   55.5408   31.7170 N   0  0  0  0  0  0  0  0  0  0  0  0
   47.6960   57.1511   33.5441 C   0  0  0  0  0  0  0  0  0  0  0  0
   47.6598   58.4105   32.6140 C   0  0  1  0  0  0  0  0  0  0  0  0
   48.6922   58.5713   31.5964 O   0  0  0  0  0  0  0  0  0  0  0  0
   46.3275   58.6911   31.8644 C   0  0  1  0  0  0  0  0  0  0  0  0
   45.1820   59.0512   32.6477 O   0  0  0  0  0  0  0  0  0  0  0  0
   46.7246   59.5769   30.6430 C   0  0  1  0  0  0  0  0  0  0  0  0
   46.3285   60.9274   30.6489 O   0  0  0  0  0  0  0  0  0  0  0  0
   48.2069   59.2415   30.4504 C   0  0  2  0  0  0  0  0  0  0  0  0
   43.8269   52.4878   36.0374 O   0  0  0  0  0  0  0  0  0  0  0  0
   50.6912   54.9460   28.2450 N   0  0  0  0  0  0  0  0  0  0  0  0
   50.7423   55.3670   29.5787 C   0  0  0  0  0  0  0  0  0  0  0  0
   50.0050   56.5564   29.9992 N   0  0  0  0  0  0  0  0  0  0  0  0
   49.2613   57.2606   29.0903 C   0  0  0  0  0  0  0  0  0  0  0  0
   49.2169   56.8312   27.7495 C   0  0  0  0  0  0  0  0  0  0  0  0
   49.9525   55.6462   27.3310 C   0  0  0  0  0  0  0  0  0  0  0  0
   49.9068   55.1979   25.9388 N   0  0  0  0  0  0  0  0  0  0  0  0
   48.3727   57.7437   27.0177 N   0  0  0  0  0  0  0  0  0  0  0  0
   47.9117   58.7263   27.9251 C   0  0  0  0  0  0  0  0  0  0  0  0
   48.4493   58.4433   29.2139 N   0  0  0  0  0  0  0  0  0  0  0  0
  2  1  1  1  0  0  0
  2  3  1  0  0  0  0
  2  5  1  0  0  0  0
  3  4  1  0  0  0  0
  3 17  1  0  0  0  0
  5  6  1  0  0  0  0
  7  6  1  1  0  0  0
  7  8  1  0  0  0  0
  7  9  1  0  0  0  0
 10  9  1  6  0  0  0
 10 11  1  0  0  0  0
 10 12  1  0  0  0  0
 11 16  1  0  0  0  0
 12 13  1  1  0  0  0
 12 14  1  0  0  0  0
 14 15  1  1  0  0  0
 14 16  1  0  0  0  0
 16 27  1  6  0  0  0
 18 19  2  0  0  0  0
 18 23  1  0  0  0  0
 19 20  1  0  0  0  0
 20 21  2  0  0  0  0
 21 22  1  0  0  0  0
 21 27  1  0  0  0  0
 22 23  2  0  0  0  0
 22 25  1  0  0  0  0
 23 24  1  0  0  0  0
 25 26  2  0  0  0  0
 26 27  1  0  0  0  0
M  END
>  <CHROM.1>
-44.04915032,-63.41298869,69.61611917,-166.43934880,176.91702564,-63.70155745
-10.33573482,47.42442792,56.63368438,31.46822363,-2.52129923,0.90567550,-0.37210044

>  <Name>
ligand

>  <RI>
0

>  <Rbt.Current_Directory>
/home/itssahil/PROJECTS/Mol_Feturizer/New_Systems/rnas/3GX2

>  <Rbt.Executable>
rbdock ($Id: //depot/dev/client3/rdock/2013.1/src/exe/rbdock.cxx#4 $)

>  <Rbt.Library>
libRbt.so (2013.1, Build901 2013/11/27)

>  <Rbt.Parameter_File>
/export/apps/rDock/src/rDock_2013.1_src/data/scripts/dock_solv.prm

>  <Rbt.Receptor>
prm/pocket_docking_5.prm

>  <SCORE>
-12.2199

>  <SCORE.INTER>
-10.2349

>  <SCORE.INTER.CONST>
1

>  <SCORE.INTER.POLAR>
0

>  <SCORE.INTER.ROT>
7

>  <SCORE.INTER.SOLV>
11.8215

>  <SCORE.INTER.VDW>
-19.0305

>  <SCORE.INTER.norm>
-0.379071

>  <SCORE.INTRA>
-1.98492

>  <SCORE.INTRA.DIHEDRAL>
-8.50218

>  <SCORE.INTRA.DIHEDRAL.0>
13.9704

>  <SCORE.INTRA.POLAR>
0

>  <SCORE.INTRA.POLAR.0>
0

>  <SCORE.INTRA.REPUL>
0

>  <SCORE.INTRA.REPUL.0>
0

>  <SCORE.INTRA.SOLV>
5.15343

>  <SCORE.INTRA.SOLV.lig_0>
-70.9758

>  <SCORE.INTRA.VDW>
-0.310549

>  <SCORE.INTRA.VDW.0>
-2.70686

>  <SCORE.INTRA.norm>
-0.0735157

>  <SCORE.RESTR>
0

>  <SCORE.RESTR.CAVITY>
0

>  <SCORE.RESTR.norm>
0

>  <SCORE.SYSTEM>
0

>  <SCORE.SYSTEM.CONST>
0

>  <SCORE.SYSTEM.DIHEDRAL>
0

>  <SCORE.SYSTEM.SOLV>
0

>  <SCORE.SYSTEM.norm>
0

>  <SCORE.heavy>
27

>  <SCORE.norm>
-0.452587

>  <RMSD>
6.510

$$$$
ligand
 OpenBabel11021811483D
libRbt.so/2013.1/901 2013/11/27
 27 29  0  0  0  0  0  0  0  0999 V2000
   46.8440   54.9069   34.4452 N   0  0  0  0  0  0  0  0  0  0  0  0
   48.2758   54.8938   34.7360 C   0  0  2  0  0  0  0  0  0  0  0  0
   48.6264   54.3199   36.1104 C   0  0  0  0  0  0  0  0  0  0  0  0
   49.7696   54.1982   36.4024 O   0  0  0  0  0  0  0  0  0  0  0  0
   49.0056   56.2194   34.4336 C   0  0  0  0  0  0  0  0  0  0  0  0
   48.8341   56.8847   33.0396 C   0  0  0  0  0  0  0  0  0  0  0  0
   49.7335   58.1198   32.7675 C   0  0  2  0  0  0  0  0  0  0  0  0
   49.5809   59.1686   33.7758 N   0  0  0  0  0  0  0  0  0  0  0  0
   49.5832   58.6475   31.3073 C   0  0  0  0  0  0  0  0  0  0  0  0
   48.1734   59.1335   30.8291 C   0  0  1  0  0  0  0  0  0  0  0  0
   47.1709   58.1430   30.4533 O   0  0  0  0  0  0  0  0  0  0  0  0
   47.4163   60.1180   31.7637 C   0  0  1  0  0  0  0  0  0  0  0  0
   47.9711   61.4271   31.9469 O   0  0  0  0  0  0  0  0  0  0  0  0
   45.9121   59.9752   31.3751 C   0  0  1  0  0  0  0  0  0  0  0  0
   45.2963   61.0510   30.7085 O   0  0  0  0  0  0  0  0  0  0  0  0
   45.8583   58.5826   30.7392 C   0  0  2  0  0  0  0  0  0  0  0  0
   47.6664   54.4068   37.1383 O   0  0  0  0  0  0  0  0  0  0  0  0
   41.5327   55.3384   31.2402 N   0  0  0  0  0  0  0  0  0  0  0  0
   41.8525   56.1703   30.1611 C   0  0  0  0  0  0  0  0  0  0  0  0
   43.0673   56.9815   30.1977 N   0  0  0  0  0  0  0  0  0  0  0  0
   43.8962   56.9283   31.2864 C   0  0  0  0  0  0  0  0  0  0  0  0
   43.5660   56.0898   32.3689 C   0  0  0  0  0  0  0  0  0  0  0  0
   42.3547   55.2823   32.3321 C   0  0  0  0  0  0  0  0  0  0  0  0
   42.0105   54.4098   33.4553 N   0  0  0  0  0  0  0  0  0  0  0  0
   44.5968   56.2270   33.3687 N   0  0  0  0  0  0  0  0  0  0  0  0
   45.5478   57.1549   32.8827 C   0  0  0  0  0  0  0  0  0  0  0  0
   45.1328   57.5989   31.5941 N   0  0  0  0  0  0  0  0  0  0  0  0
  2  1  1  1  0  0  0
  2  3  1  0  0  0  0
  2  5  1  0  0  0  0
  3  4  1  0  0  0  0
  3 17  1  0  0  0  0
  5  6  1  0  0  0  0
  7  6  1  1  0  0  0
  7  8  1  0  0  0  0
  7  9  1  0  0  0  0
 10  9  1  1  0  0  0
 10 11  1  0  0  0  0
 10 12  1  0  0  0  0
 11 16  1  0  0  0  0
 12 13  1  6  0  0  0
 12 14  1  0  0  0  0
 14 15  1  6  0  0  0
 14 16  1  0  0  0  0
 16 27  1  1  0  0  0
 18 19  2  0  0  0  0
 18 23  1  0  0  0  0
 19 20  1  0  0  0  0
 20 21  2  0  0  0  0
 21 22  1  0  0  0  0
 21 27  1  0  0  0  0
 22 23  2  0  0  0  0
 22 25  1  0  0  0  0
 23 24  1  0  0  0  0
 25 26  2  0  0  0  0
 26 27  1  0  0  0  0
M  END
>  <CHROM.1>
175.71606102,-51.28002043,-173.02585807,-55.60482477,60.42745151,-78.37034633
-121.70946268,46.35399832,57.15191314,32.66550729,0.46204032,0.37890974,2.47367744

>  <Name>
ligand

>  <RI>
0

>  <Rbt.Current_Directory>
/home/itssahil/PROJECTS/Mol_Feturizer/New_Systems/rnas/3GX2

>  <Rbt.Executable>
rbdock ($Id: //depot/dev/client3/rdock/2013.1/src/exe/rbdock.cxx#4 $)

>  <Rbt.Library>
libRbt.so (2013.1, Build901 2013/11/27)

>  <Rbt.Parameter_File>
/export/apps/rDock/src/rDock_2013.1_src/data/scripts/dock_solv.prm

>  <Rbt.Receptor>
prm/pocket_docking_8.prm

>  <SCORE>
-16.269

>  <SCORE.INTER>
-13.6448

>  <SCORE.INTER.CONST>
1

>  <SCORE.INTER.POLAR>
0

>  <SCORE.INTER.ROT>
7

>  <SCORE.INTER.SOLV>
20.3571

>  <SCORE.INTER.VDW>
-24.1489

>  <SCORE.INTER.norm>
-0.505363

>  <SCORE.INTRA>
-2.62421

>  <SCORE.INTRA.DIHEDRAL>
-7.80424

>  <SCORE.INTRA.DIHEDRAL.0>
13.9704

>  <SCORE.INTRA.POLAR>
0

>  <SCORE.INTRA.POLAR.0>
0

>  <SCORE.INTRA.REPUL>
0

>  <SCORE.INTRA.REPUL.0>
0

>  <SCORE.INTRA.SOLV>
3.74591

>  <SCORE.INTRA.SOLV.lig_0>
-70.9758

>  <SCORE.INTRA.VDW>
-0.595045

>  <SCORE.INTRA.VDW.0>
-2.70686

>  <SCORE.INTRA.norm>
-0.0971929

>  <SCORE.RESTR>
0

>  <SCORE.RESTR.CAVITY>
0

>  <SCORE.RESTR.norm>
0

>  <SCORE.SYSTEM>
0

>  <SCORE.SYSTEM.CONST>
0

>  <SCORE.SYSTEM.DIHEDRAL>
0

>  <SCORE.SYSTEM.SOLV>
0

>  <SCORE.SYSTEM.norm>
0

>  <SCORE.heavy>
27

>  <SCORE.norm>
-0.602556

>  <RMSD>
6.518

$$$$
ligand
 OpenBabel11021811483D
libRbt.so/2013.1/901 2013/11/27
 27 29  0  0  0  0  0  0  0  0999 V2000
   49.8820   53.1377   31.2612 N   0  0  0  0  0  0  0  0  0  0  0  0
   49.0052   54.0025   32.0476 C   0  0  2  0  0  0  0  0  0  0  0  0
   48.9614   53.6549   33.5371 C   0  0  0  0  0  0  0  0  0  0  0  0
   48.7030   52.5418   33.8551 O   0  0  0  0  0  0  0  0  0  0  0  0
   47.6039   54.2213   31.4395 C   0  0  0  0  0  0  0  0  0  0  0  0
   46.6445   55.2591   32.0858 C   0  0  0  0  0  0  0  0  0  0  0  0
   47.1912   56.7077   32.1914 C   0  0  2  0  0  0  0  0  0  0  0  0
   48.2144   56.8561   33.2262 N   0  0  0  0  0  0  0  0  0  0  0  0
   46.0472   57.7620   32.3054 C   0  0  0  0  0  0  0  0  0  0  0  0
   45.1692   58.0525   31.0417 C   0  0  1  0  0  0  0  0  0  0  0  0
   45.7880   58.6694   29.8739 O   0  0  0  0  0  0  0  0  0  0  0  0
   44.3524   56.8620   30.4660 C   0  0  1  0  0  0  0  0  0  0  0  0
   43.2893   56.3302   31.2673 O   0  0  0  0  0  0  0  0  0  0  0  0
   44.0699   57.2413   28.9793 C   0  0  1  0  0  0  0  0  0  0  0  0
   42.7483   57.5644   28.6188 O   0  0  0  0  0  0  0  0  0  0  0  0
   45.1872   58.2421   28.6679 C   0  0  2  0  0  0  0  0  0  0  0  0
   49.6717   54.4732   34.4380 O   0  0  0  0  0  0  0  0  0  0  0  0
   47.2075   53.7872   26.3101 N   0  0  0  0  0  0  0  0  0  0  0  0
   46.1461   53.8624   27.2193 C   0  0  0  0  0  0  0  0  0  0  0  0
   45.7339   55.1569   27.7572 N   0  0  0  0  0  0  0  0  0  0  0  0
   46.3836   56.2992   27.3720 C   0  0  0  0  0  0  0  0  0  0  0  0
   47.4520   56.2144   26.4580 C   0  0  0  0  0  0  0  0  0  0  0  0
   47.8627   54.9239   25.9229 C   0  0  0  0  0  0  0  0  0  0  0  0
   48.9718   54.8339   24.9725 N   0  0  0  0  0  0  0  0  0  0  0  0
   47.9501   57.5490   26.2306 N   0  0  0  0  0  0  0  0  0  0  0  0
   47.1771   58.4370   27.0151 C   0  0  0  0  0  0  0  0  0  0  0  0
   46.2007   57.6826   27.7274 N   0  0  0  0  0  0  0  0  0  0  0  0
  2  1  1  6  0  0  0
  2  3  1  0  0  0  0
  2  5  1  0  0  0  0
  3  4  1  0  0  0  0
  3 17  1  0  0  0  0
  5  6  1  0  0  0  0
  7  6  1  1  0  0  0
  7  8  1  0  0  0  0
  7  9  1  0  0  0  0
 10  9  1  1  0  0  0
 10 11  1  0  0  0  0
 10 12  1  0  0  0  0
 11 16  1  0  0  0  0
 12 13  1  1  0  0  0
 12 14  1  0  0  0  0
 14 15  1  1  0  0  0
 14 16  1  0  0  0  0
 16 27  1  6  0  0  0
 18 19  2  0  0  0  0
 18 23  1  0  0  0  0
 19 20  1  0  0  0  0
 20 21  2  0  0  0  0
 21 22  1  0  0  0  0
 21 27  1  0  0  0  0
 22 23  2  0  0  0  0
 22 25  1  0  0  0  0
 23 24  1  0  0  0  0
 25 26  2  0  0  0  0
 26 27  1  0  0  0  0
M  END
>  <CHROM.1>
-53.58504493,-172.37691807,56.97294447,-73.27257422,-71.39653348,-65.66561033
107.89943157,46.78438511,55.92855688,29.82023079,-1.08557950,0.72665333,-1.53950008

>  <Name>
ligand

>  <RI>
0

>  <Rbt.Current_Directory>
/home/itssahil/PROJECTS/Mol_Feturizer/New_Systems/rnas/3GX2

>  <Rbt.Executable>
rbdock ($Id: //depot/dev/client3/rdock/2013.1/src/exe/rbdock.cxx#4 $)

>  <Rbt.Library>
libRbt.so (2013.1, Build901 2013/11/27)

>  <Rbt.Parameter_File>
/export/apps/rDock/src/rDock_2013.1_src/data/scripts/dock_solv.prm

>  <Rbt.Receptor>
prm/pocket_docking_8.prm

>  <SCORE>
-8.80383

>  <SCORE.INTER>
-5.50696

>  <SCORE.INTER.CONST>
1

>  <SCORE.INTER.POLAR>
0

>  <SCORE.INTER.ROT>
7

>  <SCORE.INTER.SOLV>
15.8079

>  <SCORE.INTER.VDW>
-17.2073

>  <SCORE.INTER.norm>
-0.203962

>  <SCORE.INTRA>
-3.29687

>  <SCORE.INTRA.DIHEDRAL>
-8.12821

>  <SCORE.INTRA.DIHEDRAL.0>
13.9704

>  <SCORE.INTRA.POLAR>
0

>  <SCORE.INTRA.POLAR.0>
0

>  <SCORE.INTRA.REPUL>
0

>  <SCORE.INTRA.REPUL.0>
0

>  <SCORE.INTRA.SOLV>
2.75997

>  <SCORE.INTRA.SOLV.lig_0>
-70.9758

>  <SCORE.INTRA.VDW>
-0.612752

>  <SCORE.INTRA.VDW.0>
-2.70686

>  <SCORE.INTRA.norm>
-0.122106

>  <SCORE.RESTR>
0

>  <SCORE.RESTR.CAVITY>
0

>  <SCORE.RESTR.norm>
0

>  <SCORE.SYSTEM>
0

>  <SCORE.SYSTEM.CONST>
0

>  <SCORE.SYSTEM.DIHEDRAL>
0

>  <SCORE.SYSTEM.SOLV>
0

>  <SCORE.SYSTEM.norm>
0

>  <SCORE.heavy>
27

>  <SCORE.norm>
-0.326068

>  <RMSD>
6.528

$$$$
ligand
 OpenBabel11021811473D
libRbt.so/2013.1/901 2013/11/27
 27 29  0  0  0  0  0  0  0  0999 V2000
   47.5673   53.8918   34.2324 N   0  0  0  0  0  0  0  0  0  0  0  0
   48.0280   55.2492   33.9492 C   0  0  2  0  0  0  0  0  0  0  0  0
   49.0861   55.7638   34.9274 C   0  0  0  0  0  0  0  0  0  0  0  0
   49.7231   54.9759   35.5441 O   0  0  0  0  0  0  0  0  0  0  0  0
   46.9003   56.2703   33.6908 C   0  0  0  0  0  0  0  0  0  0  0  0
   45.9588   56.0756   32.4698 C   0  0  0  0  0  0  0  0  0  0  0  0
   44.9493   57.2248   32.2075 C   0  0  2  0  0  0  0  0  0  0  0  0
   43.9953   56.9127   31.1433 N   0  0  0  0  0  0  0  0  0  0  0  0
   45.6600   58.5992   32.0093 C   0  0  0  0  0  0  0  0  0  0  0  0
   46.7575   58.7204   30.8988 C   0  0  1  0  0  0  0  0  0  0  0  0
   48.0520   58.0816   31.1073 O   0  0  0  0  0  0  0  0  0  0  0  0
   46.3467   58.3061   29.4581 C   0  0  1  0  0  0  0  0  0  0  0  0
   45.3653   59.1061   28.7859 O   0  0  0  0  0  0  0  0  0  0  0  0
   47.6863   57.9729   28.7312 C   0  0  1  0  0  0  0  0  0  0  0  0
   48.1296   58.8522   27.7256 O   0  0  0  0  0  0  0  0  0  0  0  0
   48.6283   57.6432   29.8934 C   0  0  2  0  0  0  0  0  0  0  0  0
   49.6084   57.0578   34.7310 O   0  0  0  0  0  0  0  0  0  0  0  0
   47.5445   52.6585   28.0318 N   0  0  0  0  0  0  0  0  0  0  0  0
   46.9188   53.8571   27.6701 C   0  0  0  0  0  0  0  0  0  0  0  0
   47.3428   55.1162   28.2784 N   0  0  0  0  0  0  0  0  0  0  0  0
   48.3539   55.1268   29.2018 C   0  0  0  0  0  0  0  0  0  0  0  0
   48.9770   53.9158   29.5615 C   0  0  0  0  0  0  0  0  0  0  0  0
   48.5534   52.6613   28.9555 C   0  0  0  0  0  0  0  0  0  0  0  0
   49.2002   51.4024   29.3272 N   0  0  0  0  0  0  0  0  0  0  0  0
   49.9933   54.2122   30.5414 N   0  0  0  0  0  0  0  0  0  0  0  0
   49.9764   55.6081   30.7713 C   0  0  0  0  0  0  0  0  0  0  0  0
   48.9695   56.1922   29.9497 N   0  0  0  0  0  0  0  0  0  0  0  0
  2  1  1  1  0  0  0
  2  3  1  0  0  0  0
  2  5  1  0  0  0  0
  3  4  1  0  0  0  0
  3 17  1  0  0  0  0
  5  6  1  0  0  0  0
  7  6  1  6  0  0  0
  7  8  1  0  0  0  0
  7  9  1  0  0  0  0
 10  9  1  1  0  0  0
 10 11  1  0  0  0  0
 10 12  1  0  0  0  0
 11 16  1  0  0  0  0
 12 13  1  6  0  0  0
 12 14  1  0  0  0  0
 14 15  1  1  0  0  0
 14 16  1  0  0  0  0
 16 27  1  1  0  0  0
 18 19  2  0  0  0  0
 18 23  1  0  0  0  0
 19 20  1  0  0  0  0
 20 21  2  0  0  0  0
 21 22  1  0  0  0  0
 21 27  1  0  0  0  0
 22 23  2  0  0  0  0
 22 25  1  0  0  0  0
 23 24  1  0  0  0  0
 25 26  2  0  0  0  0
 26 27  1  0  0  0  0
M  END
>  <CHROM.1>
21.82904720,-62.95878866,-174.03805100,-173.43924814,55.65763484,-72.39425678
112.34575597,47.70998719,56.04674431,30.93422792,-1.13361037,1.06411853,-1.83939976

>  <Name>
ligand

>  <RI>
0

>  <Rbt.Current_Directory>
/home/itssahil/PROJECTS/Mol_Feturizer/New_Systems/rnas/3GX2

>  <Rbt.Executable>
rbdock ($Id: //depot/dev/client3/rdock/2013.1/src/exe/rbdock.cxx#4 $)

>  <Rbt.Library>
libRbt.so (2013.1, Build901 2013/11/27)

>  <Rbt.Parameter_File>
/export/apps/rDock/src/rDock_2013.1_src/data/scripts/dock_solv.prm

>  <Rbt.Receptor>
prm/pocket_docking_3.prm

>  <SCORE>
-6.00239

>  <SCORE.INTER>
-2.04113

>  <SCORE.INTER.CONST>
1

>  <SCORE.INTER.POLAR>
0

>  <SCORE.INTER.ROT>
7

>  <SCORE.INTER.SOLV>
21.5736

>  <SCORE.INTER.VDW>
-16.8186

>  <SCORE.INTER.norm>
-0.0755974

>  <SCORE.INTRA>
-3.96739

>  <SCORE.INTRA.DIHEDRAL>
-8.13983

>  <SCORE.INTRA.DIHEDRAL.0>
13.9704

>  <SCORE.INTRA.POLAR>
0

>  <SCORE.INTRA.POLAR.0>
0

>  <SCORE.INTRA.REPUL>
0

>  <SCORE.INTRA.REPUL.0>
0

>  <SCORE.INTRA.SOLV>
1.82002

>  <SCORE.INTRA.SOLV.lig_0>
-70.9758

>  <SCORE.INTRA.VDW>
-0.807483

>  <SCORE.INTRA.VDW.0>
-2.70686

>  <SCORE.INTRA.norm>
-0.14694

>  <SCORE.RESTR>
0.00612985

>  <SCORE.RESTR.CAVITY>
0.00612985

>  <SCORE.RESTR.norm>
0.000227031

>  <SCORE.SYSTEM>
0

>  <SCORE.SYSTEM.CONST>
0

>  <SCORE.SYSTEM.DIHEDRAL>
0

>  <SCORE.SYSTEM.SOLV>
0

>  <SCORE.SYSTEM.norm>
0

>  <SCORE.heavy>
27

>  <SCORE.norm>
-0.222311

>  <RMSD>
6.557

$$$$
ligand
 OpenBabel11021811473D
libRbt.so/2013.1/901 2013/11/27
 27 29  0  0  0  0  0  0  0  0999 V2000
   47.2529   53.5846   36.6493 N   0  0  0  0  0  0  0  0  0  0  0  0
   46.1768   54.1021   35.8071 C   0  0  2  0  0  0  0  0  0  0  0  0
   44.7962   54.0592   36.4654 C   0  0  0  0  0  0  0  0  0  0  0  0
   43.9482   54.7816   36.0583 O   0  0  0  0  0  0  0  0  0  0  0  0
   46.1721   53.5581   34.3632 C   0  0  0  0  0  0  0  0  0  0  0  0
   45.3749   54.3148   33.2645 C   0  0  0  0  0  0  0  0  0  0  0  0
   46.1343   55.4668   32.5541 C   0  0  2  0  0  0  0  0  0  0  0  0
   47.3517   55.0157   31.8801 N   0  0  0  0  0  0  0  0  0  0  0  0
   46.3725   56.6855   33.4982 C   0  0  0  0  0  0  0  0  0  0  0  0
   47.0397   57.9720   32.9049 C   0  0  1  0  0  0  0  0  0  0  0  0
   48.3541   57.8669   32.2816 O   0  0  0  0  0  0  0  0  0  0  0  0
   46.1952   58.7985   31.8952 C   0  0  1  0  0  0  0  0  0  0  0  0
   45.0182   59.4536   32.3858 O   0  0  0  0  0  0  0  0  0  0  0  0
   47.2339   59.6168   31.0673 C   0  0  1  0  0  0  0  0  0  0  0  0
   47.2894   61.0089   31.2667 O   0  0  0  0  0  0  0  0  0  0  0  0
   48.5166   58.7948   31.2278 C   0  0  2  0  0  0  0  0  0  0  0  0
   44.4211   52.8930   37.1618 O   0  0  0  0  0  0  0  0  0  0  0  0
   50.6761   54.3609   28.9554 N   0  0  0  0  0  0  0  0  0  0  0  0
   50.4709   54.6052   30.3181 C   0  0  0  0  0  0  0  0  0  0  0  0
   49.8726   55.8652   30.7535 N   0  0  0  0  0  0  0  0  0  0  0  0
   49.5097   56.8086   29.8297 C   0  0  0  0  0  0  0  0  0  0  0  0
   49.7214   56.5555   28.4603 C   0  0  0  0  0  0  0  0  0  0  0  0
   50.3185   55.2999   28.0273 C   0  0  0  0  0  0  0  0  0  0  0  0
   50.5383   55.0347   26.6050 N   0  0  0  0  0  0  0  0  0  0  0  0
   49.2557   57.7018   27.7187 N   0  0  0  0  0  0  0  0  0  0  0  0
   48.7650   58.6473   28.6498 C   0  0  0  0  0  0  0  0  0  0  0  0
   48.9118   58.1119   29.9620 N   0  0  0  0  0  0  0  0  0  0  0  0
  2  1  1  1  0  0  0
  2  3  1  0  0  0  0
  2  5  1  0  0  0  0
  3  4  1  0  0  0  0
  3 17  1  0  0  0  0
  5  6  1  0  0  0  0
  7  6  1  1  0  0  0
  7  8  1  0  0  0  0
  7  9  1  0  0  0  0
 10  9  1  6  0  0  0
 10 11  1  0  0  0  0
 10 12  1  0  0  0  0
 11 16  1  0  0  0  0
 12 13  1  1  0  0  0
 12 14  1  0  0  0  0
 14 15  1  1  0  0  0
 14 16  1  0  0  0  0
 16 27  1  6  0  0  0
 18 19  2  0  0  0  0
 18 23  1  0  0  0  0
 19 20  1  0  0  0  0
 20 21  2  0  0  0  0
 21 22  1  0  0  0  0
 21 27  1  0  0  0  0
 22 23  2  0  0  0  0
 22 25  1  0  0  0  0
 23 24  1  0  0  0  0
 25 26  2  0  0  0  0
 26 27  1  0  0  0  0
M  END
>  <CHROM.1>
158.35555693,-161.98913145,86.48113491,59.56326232,-175.85595900,-57.72703263
-20.60317744,47.53094030,56.34176087,31.95696758,-2.47678732,0.88819086,-0.40430963

>  <Name>
ligand

>  <RI>
0

>  <Rbt.Current_Directory>
/home/itssahil/PROJECTS/Mol_Feturizer/New_Systems/rnas/3GX2

>  <Rbt.Executable>
rbdock ($Id: //depot/dev/client3/rdock/2013.1/src/exe/rbdock.cxx#4 $)

>  <Rbt.Library>
libRbt.so (2013.1, Build901 2013/11/27)

>  <Rbt.Parameter_File>
/export/apps/rDock/src/rDock_2013.1_src/data/scripts/dock_solv.prm

>  <Rbt.Receptor>
prm/pocket_docking_7.prm

>  <SCORE>
-12.3497

>  <SCORE.INTER>
-10.9413

>  <SCORE.INTER.CONST>
1

>  <SCORE.INTER.POLAR>
0

>  <SCORE.INTER.ROT>
7

>  <SCORE.INTER.SOLV>
11.7575

>  <SCORE.INTER.VDW>
-19.48

>  <SCORE.INTER.norm>
-0.405232

>  <SCORE.INTRA>
-1.40838

>  <SCORE.INTRA.DIHEDRAL>
-5.63168

>  <SCORE.INTRA.DIHEDRAL.0>
13.9704

>  <SCORE.INTRA.POLAR>
0

>  <SCORE.INTRA.POLAR.0>
0

>  <SCORE.INTRA.REPUL>
0

>  <SCORE.INTRA.REPUL.0>
0

>  <SCORE.INTRA.SOLV>
3.49752

>  <SCORE.INTRA.SOLV.lig_0>
-70.9758

>  <SCORE.INTRA.VDW>
-0.341305

>  <SCORE.INTRA.VDW.0>
-2.70686

>  <SCORE.INTRA.norm>
-0.0521623

>  <SCORE.RESTR>
0

>  <SCORE.RESTR.CAVITY>
0

>  <SCORE.RESTR.norm>
0

>  <SCORE.SYSTEM>
0

>  <SCORE.SYSTEM.CONST>
0

>  <SCORE.SYSTEM.DIHEDRAL>
0

>  <SCORE.SYSTEM.SOLV>
0

>  <SCORE.SYSTEM.norm>
0

>  <SCORE.heavy>
27

>  <SCORE.norm>
-0.457395

>  <RMSD>
6.557

$$$$
ligand
 OpenBabel11021811473D
libRbt.so/2013.1/901 2013/11/27
 27 29  0  0  0  0  0  0  0  0999 V2000
   49.0286   54.5153   32.6853 N   0  0  0  0  0  0  0  0  0  0  0  0
   49.5264   55.3762   33.7559 C   0  0  2  0  0  0  0  0  0  0  0  0
   48.8457   55.1460   35.1067 C   0  0  0  0  0  0  0  0  0  0  0  0
   49.3502   55.5932   36.0826 O   0  0  0  0  0  0  0  0  0  0  0  0
   49.6334   56.8696   33.3828 C   0  0  0  0  0  0  0  0  0  0  0  0
   48.3367   57.6905   33.1383 C   0  0  0  0  0  0  0  0  0  0  0  0
   48.5097   58.9936   32.3134 C   0  0  2  0  0  0  0  0  0  0  0  0
   49.6051   59.8333   32.7984 N   0  0  0  0  0  0  0  0  0  0  0  0
   47.1671   59.7711   32.1520 C   0  0  0  0  0  0  0  0  0  0  0  0
   45.9759   59.0632   31.4224 C   0  0  1  0  0  0  0  0  0  0  0  0
   46.1517   58.6167   30.0451 O   0  0  0  0  0  0  0  0  0  0  0  0
   45.3325   57.8475   32.1463 C   0  0  1  0  0  0  0  0  0  0  0  0
   44.6316   58.0931   33.3725 O   0  0  0  0  0  0  0  0  0  0  0  0
   44.6332   57.0247   31.0203 C   0  0  1  0  0  0  0  0  0  0  0  0
   43.2262   57.0087   30.9894 O   0  0  0  0  0  0  0  0  0  0  0  0
   45.3958   57.4560   29.7636 C   0  0  2  0  0  0  0  0  0  0  0  0
   47.4656   54.8617   35.1226 O   0  0  0  0  0  0  0  0  0  0  0  0
   48.2711   55.6231   25.5375 N   0  0  0  0  0  0  0  0  0  0  0  0
   47.5449   56.8167   25.6196 C   0  0  0  0  0  0  0  0  0  0  0  0
   46.8240   57.1515   26.8457 N   0  0  0  0  0  0  0  0  0  0  0  0
   46.8586   56.2996   27.9173 C   0  0  0  0  0  0  0  0  0  0  0  0
   47.5904   55.0995   27.8256 C   0  0  0  0  0  0  0  0  0  0  0  0
   48.3079   54.7662   26.6031 C   0  0  0  0  0  0  0  0  0  0  0  0
   49.0694   53.5203   26.5062 N   0  0  0  0  0  0  0  0  0  0  0  0
   47.4568   54.3999   29.0800 N   0  0  0  0  0  0  0  0  0  0  0  0
   46.6383   55.1846   29.9262 C   0  0  0  0  0  0  0  0  0  0  0  0
   46.2595   56.3657   29.2250 N   0  0  0  0  0  0  0  0  0  0  0  0
  2  1  1  6  0  0  0
  2  3  1  0  0  0  0
  2  5  1  0  0  0  0
  3  4  1  0  0  0  0
  3 17  1  0  0  0  0
  5  6  1  0  0  0  0
  7  6  1  1  0  0  0
  7  8  1  0  0  0  0
  7  9  1  0  0  0  0
 10  9  1  1  0  0  0
 10 11  1  0  0  0  0
 10 12  1  0  0  0  0
 11 16  1  0  0  0  0
 12 13  1  1  0  0  0
 12 14  1  0  0  0  0
 14 15  1  6  0  0  0
 14 16  1  0  0  0  0
 16 27  1  1  0  0  0
 18 19  2  0  0  0  0
 18 23  1  0  0  0  0
 19 20  1  0  0  0  0
 20 21  2  0  0  0  0
 21 22  1  0  0  0  0
 21 27  1  0  0  0  0
 22 23  2  0  0  0  0
 22 25  1  0  0  0  0
 23 24  1  0  0  0  0
 25 26  2  0  0  0  0
 26 27  1  0  0  0  0
M  END
>  <CHROM.1>
165.15780816,68.26669927,-159.64233245,-49.15774470,-60.78917904,-59.37310616
-72.60654495,47.29526082,56.64970149,30.87696544,-1.43071560,0.74257363,-1.80939313

>  <Name>
ligand

>  <RI>
0

>  <Rbt.Current_Directory>
/home/itssahil/PROJECTS/Mol_Feturizer/New_Systems/rnas/3GX2

>  <Rbt.Executable>
rbdock ($Id: //depot/dev/client3/rdock/2013.1/src/exe/rbdock.cxx#4 $)

>  <Rbt.Library>
libRbt.so (2013.1, Build901 2013/11/27)

>  <Rbt.Parameter_File>
/export/apps/rDock/src/rDock_2013.1_src/data/scripts/dock_solv.prm

>  <Rbt.Receptor>
prm/pocket_docking_3.prm

>  <SCORE>
-10.5655

>  <SCORE.INTER>
-7.74846

>  <SCORE.INTER.CONST>
1

>  <SCORE.INTER.POLAR>
0

>  <SCORE.INTER.ROT>
7

>  <SCORE.INTER.SOLV>
15.0453

>  <SCORE.INTER.VDW>
-18.4474

>  <SCORE.INTER.norm>
-0.28698

>  <SCORE.INTRA>
-2.81704

>  <SCORE.INTRA.DIHEDRAL>
-7.10644

>  <SCORE.INTRA.DIHEDRAL.0>
13.9704

>  <SCORE.INTRA.POLAR>
0

>  <SCORE.INTRA.POLAR.0>
0

>  <SCORE.INTRA.REPUL>
0

>  <SCORE.INTRA.REPUL.0>
0

>  <SCORE.INTRA.SOLV>
0.756369

>  <SCORE.INTRA.SOLV.lig_0>
-70.9758

>  <SCORE.INTRA.VDW>
0.357996

>  <SCORE.INTRA.VDW.0>
-2.70686

>  <SCORE.INTRA.norm>
-0.104335

>  <SCORE.RESTR>
0

>  <SCORE.RESTR.CAVITY>
0

>  <SCORE.RESTR.norm>
0

>  <SCORE.SYSTEM>
0

>  <SCORE.SYSTEM.CONST>
0

>  <SCORE.SYSTEM.DIHEDRAL>
0

>  <SCORE.SYSTEM.SOLV>
0

>  <SCORE.SYSTEM.norm>
0

>  <SCORE.heavy>
27

>  <SCORE.norm>
-0.391315

>  <RMSD>
6.560

$$$$
ligand
 OpenBabel11021811473D
libRbt.so/2013.1/901 2013/11/27
 27 29  0  0  0  0  0  0  0  0999 V2000
   49.9794   55.3281   33.9854 N   0  0  0  0  0  0  0  0  0  0  0  0
   48.7180   55.9864   34.3179 C   0  0  2  0  0  0  0  0  0  0  0  0
   47.4810   55.1181   34.0786 C   0  0  0  0  0  0  0  0  0  0  0  0
   46.6050   55.1417   34.8779 O   0  0  0  0  0  0  0  0  0  0  0  0
   48.5692   57.4144   33.7524 C   0  0  0  0  0  0  0  0  0  0  0  0
   48.5652   57.6297   32.2133 C   0  0  0  0  0  0  0  0  0  0  0  0
   48.3728   59.0946   31.7384 C   0  0  2  0  0  0  0  0  0  0  0  0
   49.3522   60.0141   32.3174 N   0  0  0  0  0  0  0  0  0  0  0  0
   46.9004   59.5806   31.9095 C   0  0  0  0  0  0  0  0  0  0  0  0
   45.8190   59.0587   30.9043 C   0  0  1  0  0  0  0  0  0  0  0  0
   45.9961   59.3083   29.4783 O   0  0  0  0  0  0  0  0  0  0  0  0
   45.4481   57.5519   30.9925 C   0  0  1  0  0  0  0  0  0  0  0  0
   44.7833   57.0946   32.1775 O   0  0  0  0  0  0  0  0  0  0  0  0
   44.8484   57.1964   29.5968 C   0  0  1  0  0  0  0  0  0  0  0  0
   43.4681   56.9327   29.5177 O   0  0  0  0  0  0  0  0  0  0  0  0
   45.4491   58.2726   28.6870 C   0  0  2  0  0  0  0  0  0  0  0  0
   47.1896   54.7146   32.7603 O   0  0  0  0  0  0  0  0  0  0  0  0
   47.1916   53.9087   25.9655 N   0  0  0  0  0  0  0  0  0  0  0  0
   46.0845   53.9948   26.8174 C   0  0  0  0  0  0  0  0  0  0  0  0
   45.7616   55.2607   27.4717 N   0  0  0  0  0  0  0  0  0  0  0  0
   46.5399   56.3657   27.2520 C   0  0  0  0  0  0  0  0  0  0  0  0
   47.6534   56.2699   26.3947 C   0  0  0  0  0  0  0  0  0  0  0  0
   47.9751   55.0078   25.7435 C   0  0  0  0  0  0  0  0  0  0  0  0
   49.1310   54.9066   24.8518 N   0  0  0  0  0  0  0  0  0  0  0  0
   48.2890   57.5640   26.3445 N   0  0  0  0  0  0  0  0  0  0  0  0
   47.5531   58.4382   27.1785 C   0  0  0  0  0  0  0  0  0  0  0  0
   46.4651   57.7155   27.7478 N   0  0  0  0  0  0  0  0  0  0  0  0
  2  1  1  6  0  0  0
  2  3  1  0  0  0  0
  2  5  1  0  0  0  0
  3  4  1  0  0  0  0
  3 17  1  0  0  0  0
  5  6  1  0  0  0  0
  7  6  1  1  0  0  0
  7  8  1  0  0  0  0
  7  9  1  0  0  0  0
 10  9  1  1  0  0  0
 10 11  1  0  0  0  0
 10 12  1  0  0  0  0
 11 16  1  0  0  0  0
 12 13  1  1  0  0  0
 12 14  1  0  0  0  0
 14 15  1  1  0  0  0
 14 16  1  0  0  0  0
 16 27  1  1  0  0  0
 18 19  2  0  0  0  0
 18 23  1  0  0  0  0
 19 20  1  0  0  0  0
 20 21  2  0  0  0  0
 21 22  1  0  0  0  0
 21 27  1  0  0  0  0
 22 23  2  0  0  0  0
 22 25  1  0  0  0  0
 23 24  1  0  0  0  0
 25 26  2  0  0  0  0
 26 27  1  0  0  0  0
M  END
>  <CHROM.1>
138.98474319,62.50342875,178.43431682,55.02871719,-74.83426137,-58.49789624
149.52165320,47.01096249,56.85242327,30.07459099,-1.34891630,1.13337368,-1.90380395

>  <Name>
ligand

>  <RI>
0

>  <Rbt.Current_Directory>
/home/itssahil/PROJECTS/Mol_Feturizer/New_Systems/rnas/3GX2

>  <Rbt.Executable>
rbdock ($Id: //depot/dev/client3/rdock/2013.1/src/exe/rbdock.cxx#4 $)

>  <Rbt.Library>
libRbt.so (2013.1, Build901 2013/11/27)

>  <Rbt.Parameter_File>
/export/apps/rDock/src/rDock_2013.1_src/data/scripts/dock_solv.prm

>  <Rbt.Receptor>
prm/pocket_docking_5.prm

>  <SCORE>
-11.7944

>  <SCORE.INTER>
-7.8282

>  <SCORE.INTER.CONST>
1

>  <SCORE.INTER.POLAR>
0

>  <SCORE.INTER.ROT>
7

>  <SCORE.INTER.SOLV>
17.8114

>  <SCORE.INTER.VDW>
-19.4226

>  <SCORE.INTER.norm>
-0.289933

>  <SCORE.INTRA>
-3.96616

>  <SCORE.INTRA.DIHEDRAL>
-8.15096

>  <SCORE.INTRA.DIHEDRAL.0>
13.9704

>  <SCORE.INTRA.POLAR>
0

>  <SCORE.INTRA.POLAR.0>
0

>  <SCORE.INTRA.REPUL>
0

>  <SCORE.INTRA.REPUL.0>
0

>  <SCORE.INTRA.SOLV>
1.06264

>  <SCORE.INTRA.SOLV.lig_0>
-70.9758

>  <SCORE.INTRA.VDW>
-0.422001

>  <SCORE.INTRA.VDW.0>
-2.70686

>  <SCORE.INTRA.norm>
-0.146895

>  <SCORE.RESTR>
0

>  <SCORE.RESTR.CAVITY>
0

>  <SCORE.RESTR.norm>
0

>  <SCORE.SYSTEM>
0

>  <SCORE.SYSTEM.CONST>
0

>  <SCORE.SYSTEM.DIHEDRAL>
0

>  <SCORE.SYSTEM.SOLV>
0

>  <SCORE.SYSTEM.norm>
0

>  <SCORE.heavy>
27

>  <SCORE.norm>
-0.436828

>  <RMSD>
6.561

$$$$
ligand
 OpenBabel11021811473D
libRbt.so/2013.1/901 2013/11/27
 27 29  0  0  0  0  0  0  0  0999 V2000
   46.2211   54.2073   34.1178 N   0  0  0  0  0  0  0  0  0  0  0  0
   47.1808   53.4217   34.8903 C   0  0  2  0  0  0  0  0  0  0  0  0
   47.1445   53.6994   36.3946 C   0  0  0  0  0  0  0  0  0  0  0  0
   46.3286   53.1484   37.0561 O   0  0  0  0  0  0  0  0  0  0  0  0
   48.6127   53.4094   34.3152 C   0  0  0  0  0  0  0  0  0  0  0  0
   49.3901   54.7475   34.1732 C   0  0  0  0  0  0  0  0  0  0  0  0
   48.8477   55.7315   33.1026 C   0  0  2  0  0  0  0  0  0  0  0  0
   48.9838   55.2205   31.7387 N   0  0  0  0  0  0  0  0  0  0  0  0
   49.4252   57.1698   33.2783 C   0  0  0  0  0  0  0  0  0  0  0  0
   48.9085   58.3042   32.3304 C   0  0  1  0  0  0  0  0  0  0  0  0
   49.5912   58.5357   31.0625 O   0  0  0  0  0  0  0  0  0  0  0  0
   47.3992   58.2758   31.9600 C   0  0  1  0  0  0  0  0  0  0  0  0
   46.4487   58.5118   33.0069 O   0  0  0  0  0  0  0  0  0  0  0  0
   47.2888   59.0886   30.6329 C   0  0  1  0  0  0  0  0  0  0  0  0
   46.6564   60.3452   30.6776 O   0  0  0  0  0  0  0  0  0  0  0  0
   48.7065   58.9940   30.0600 C   0  0  2  0  0  0  0  0  0  0  0  0
   48.3139   54.1807   37.0163 O   0  0  0  0  0  0  0  0  0  0  0  0
   50.7593   54.5044   27.7980 N   0  0  0  0  0  0  0  0  0  0  0  0
   50.9878   54.9868   29.0918 C   0  0  0  0  0  0  0  0  0  0  0  0
   50.3470   56.2227   29.5356 N   0  0  0  0  0  0  0  0  0  0  0  0
   49.5204   56.9107   28.6879 C   0  0  0  0  0  0  0  0  0  0  0  0
   49.2973   56.4192   27.3868 C   0  0  0  0  0  0  0  0  0  0  0  0
   49.9369   55.1879   26.9450 C   0  0  0  0  0  0  0  0  0  0  0  0
   49.7056   54.6753   25.5940 N   0  0  0  0  0  0  0  0  0  0  0  0
   48.3997   57.3276   26.7159 N   0  0  0  0  0  0  0  0  0  0  0  0
   48.0861   58.3698   27.6197 C   0  0  0  0  0  0  0  0  0  0  0  0
   48.7687   58.1285   28.8468 N   0  0  0  0  0  0  0  0  0  0  0  0
  2  1  1  6  0  0  0
  2  3  1  0  0  0  0
  2  5  1  0  0  0  0
  3  4  1  0  0  0  0
  3 17  1  0  0  0  0
  5  6  1  0  0  0  0
  7  6  1  1  0  0  0
  7  8  1  0  0  0  0
  7  9  1  0  0  0  0
 10  9  1  6  0  0  0
 10 11  1  0  0  0  0
 10 12  1  0  0  0  0
 11 16  1  0  0  0  0
 12 13  1  1  0  0  0
 12 14  1  0  0  0  0
 14 15  1  1  0  0  0
 14 16  1  0  0  0  0
 16 27  1  6  0  0  0
 18 19  2  0  0  0  0
 18 23  1  0  0  0  0
 19 20  1  0  0  0  0
 20 21  2  0  0  0  0
 21 22  1  0  0  0  0
 21 27  1  0  0  0  0
 22 23  2  0  0  0  0
 22 25  1  0  0  0  0
 23 24  1  0  0  0  0
 25 26  2  0  0  0  0
 26 27  1  0  0  0  0
M  END
>  <CHROM.1>
82.65154149,60.70213858,-68.65167824,-65.96438066,-176.28169566,-89.20389151
4.97622026,48.52072926,56.29183829,31.38917694,-2.06771080,1.12468367,-0.77898048

>  <Name>
ligand

>  <RI>
0

>  <Rbt.Current_Directory>
/home/itssahil/PROJECTS/Mol_Feturizer/New_Systems/rnas/3GX2

>  <Rbt.Executable>
rbdock ($Id: //depot/dev/client3/rdock/2013.1/src/exe/rbdock.cxx#4 $)

>  <Rbt.Library>
libRbt.so (2013.1, Build901 2013/11/27)

>  <Rbt.Parameter_File>
/export/apps/rDock/src/rDock_2013.1_src/data/scripts/dock_solv.prm

>  <Rbt.Receptor>
prm/pocket_docking_5.prm

>  <SCORE>
-13.5206

>  <SCORE.INTER>
-12.7588

>  <SCORE.INTER.CONST>
1

>  <SCORE.INTER.POLAR>
0

>  <SCORE.INTER.ROT>
7

>  <SCORE.INTER.SOLV>
9.81424

>  <SCORE.INTER.VDW>
-20.044

>  <SCORE.INTER.norm>
-0.472548

>  <SCORE.INTRA>
-0.761834

>  <SCORE.INTRA.DIHEDRAL>
-6.46417

>  <SCORE.INTRA.DIHEDRAL.0>
13.9704

>  <SCORE.INTRA.POLAR>
0

>  <SCORE.INTRA.POLAR.0>
0

>  <SCORE.INTRA.REPUL>
0

>  <SCORE.INTRA.REPUL.0>
0

>  <SCORE.INTRA.SOLV>
5.75186

>  <SCORE.INTRA.SOLV.lig_0>
-70.9758

>  <SCORE.INTRA.VDW>
-0.405681

>  <SCORE.INTRA.VDW.0>
-2.70686

>  <SCORE.INTRA.norm>
-0.0282161

>  <SCORE.RESTR>
0

>  <SCORE.RESTR.CAVITY>
0

>  <SCORE.RESTR.norm>
0

>  <SCORE.SYSTEM>
0

>  <SCORE.SYSTEM.CONST>
0

>  <SCORE.SYSTEM.DIHEDRAL>
0

>  <SCORE.SYSTEM.SOLV>
0

>  <SCORE.SYSTEM.norm>
0

>  <SCORE.heavy>
27

>  <SCORE.norm>
-0.500765

>  <RMSD>
6.565

$$$$
ligand
 OpenBabel11021811473D
libRbt.so/2013.1/901 2013/11/27
 27 29  0  0  0  0  0  0  0  0999 V2000
   47.4002   53.0572   37.2470 N   0  0  0  0  0  0  0  0  0  0  0  0
   48.0402   53.4602   35.9968 C   0  0  2  0  0  0  0  0  0  0  0  0
   49.0751   54.5756   36.1589 C   0  0  0  0  0  0  0  0  0  0  0  0
   49.3478   54.9452   37.2525 O   0  0  0  0  0  0  0  0  0  0  0  0
   47.0657   53.7091   34.8266 C   0  0  0  0  0  0  0  0  0  0  0  0
   45.8455   54.6486   35.0356 C   0  0  0  0  0  0  0  0  0  0  0  0
   45.1543   55.1534   33.7410 C   0  0  2  0  0  0  0  0  0  0  0  0
   45.0636   54.1240   32.7056 N   0  0  0  0  0  0  0  0  0  0  0  0
   45.7741   56.4885   33.2248 C   0  0  0  0  0  0  0  0  0  0  0  0
   47.3265   56.6751   33.3112 C   0  0  1  0  0  0  0  0  0  0  0  0
   48.1974   55.5893   32.8756 O   0  0  0  0  0  0  0  0  0  0  0  0
   47.9194   57.9438   32.6367 C   0  0  1  0  0  0  0  0  0  0  0  0
   47.5843   59.2192   33.1991 O   0  0  0  0  0  0  0  0  0  0  0  0
   49.4168   57.6002   32.3652 C   0  0  1  0  0  0  0  0  0  0  0  0
   50.3962   58.2606   33.1305 O   0  0  0  0  0  0  0  0  0  0  0  0
   49.4115   56.0686   32.3334 C   0  0  2  0  0  0  0  0  0  0  0  0
   49.9997   54.7893   35.1173 O   0  0  0  0  0  0  0  0  0  0  0  0
   48.3562   52.0907   28.7909 N   0  0  0  0  0  0  0  0  0  0  0  0
   47.8849   52.2091   30.1033 C   0  0  0  0  0  0  0  0  0  0  0  0
   48.2751   53.3561   30.9201 N   0  0  0  0  0  0  0  0  0  0  0  0
   49.1011   54.3182   30.4032 C   0  0  0  0  0  0  0  0  0  0  0  0
   49.5725   54.1904   29.0820 C   0  0  0  0  0  0  0  0  0  0  0  0
   49.1837   53.0467   28.2689 C   0  0  0  0  0  0  0  0  0  0  0  0
   49.6717   52.9127   26.8958 N   0  0  0  0  0  0  0  0  0  0  0  0
   50.4140   55.3271   28.7979 N   0  0  0  0  0  0  0  0  0  0  0  0
   50.4485   56.1382   29.9565 C   0  0  0  0  0  0  0  0  0  0  0  0
   49.6402   55.5315   30.9608 N   0  0  0  0  0  0  0  0  0  0  0  0
  2  1  1  1  0  0  0
  2  3  1  0  0  0  0
  2  5  1  0  0  0  0
  3  4  1  0  0  0  0
  3 17  1  0  0  0  0
  5  6  1  0  0  0  0
  7  6  1  1  0  0  0
  7  8  1  0  0  0  0
  7  9  1  0  0  0  0
 10  9  1  6  0  0  0
 10 11  1  0  0  0  0
 10 12  1  0  0  0  0
 11 16  1  0  0  0  0
 12 13  1  1  0  0  0
 12 14  1  0  0  0  0
 14 15  1  1  0  0  0
 14 16  1  0  0  0  0
 16 27  1  6  0  0  0
 18 19  2  0  0  0  0
 18 23  1  0  0  0  0
 19 20  1  0  0  0  0
 20 21  2  0  0  0  0
 21 22  1  0  0  0  0
 21 27  1  0  0  0  0
 22 23  2  0  0  0  0
 22 25  1  0  0  0  0
 23 24  1  0  0  0  0
 25 26  2  0  0  0  0
 26 27  1  0  0  0  0
M  END
>  <CHROM.1>
5.56373360,51.11289165,163.69425809,39.44289321,39.35187641,45.95224790,-24.45558718
48.35603366,55.06820989,32.52230542,2.14615533,1.13417333,0.85378946

>  <Name>
ligand

>  <RI>
0

>  <Rbt.Current_Directory>
/home/itssahil/PROJECTS/Mol_Feturizer/New_Systems/rnas/3GX2

>  <Rbt.Executable>
rbdock ($Id: //depot/dev/client3/rdock/2013.1/src/exe/rbdock.cxx#4 $)

>  <Rbt.Library>
libRbt.so (2013.1, Build901 2013/11/27)

>  <Rbt.Parameter_File>
/export/apps/rDock/src/rDock_2013.1_src/data/scripts/dock_solv.prm

>  <Rbt.Receptor>
prm/pocket_docking_4.prm

>  <SCORE>
-11.2407

>  <SCORE.INTER>
-10.0709

>  <SCORE.INTER.CONST>
1

>  <SCORE.INTER.POLAR>
0

>  <SCORE.INTER.ROT>
7

>  <SCORE.INTER.SOLV>
13.036

>  <SCORE.INTER.VDW>
-19.3259

>  <SCORE.INTER.norm>
-0.372997

>  <SCORE.INTRA>
-1.1698

>  <SCORE.INTRA.DIHEDRAL>
-4.19678

>  <SCORE.INTRA.DIHEDRAL.0>
13.9704

>  <SCORE.INTRA.POLAR>
0

>  <SCORE.INTRA.POLAR.0>
0

>  <SCORE.INTRA.REPUL>
0

>  <SCORE.INTRA.REPUL.0>
0

>  <SCORE.INTRA.SOLV>
2.4645

>  <SCORE.INTRA.SOLV.lig_0>
-70.9758

>  <SCORE.INTRA.VDW>
-0.303657

>  <SCORE.INTRA.VDW.0>
-2.70686

>  <SCORE.INTRA.norm>
-0.0433259

>  <SCORE.RESTR>
0

>  <SCORE.RESTR.CAVITY>
0

>  <SCORE.RESTR.norm>
0

>  <SCORE.SYSTEM>
0

>  <SCORE.SYSTEM.CONST>
0

>  <SCORE.SYSTEM.DIHEDRAL>
0

>  <SCORE.SYSTEM.SOLV>
0

>  <SCORE.SYSTEM.norm>
0

>  <SCORE.heavy>
27

>  <SCORE.norm>
-0.416323

>  <RMSD>
6.575

$$$$
ligand
 OpenBabel11021811483D
libRbt.so/2013.1/901 2013/11/27
 27 29  0  0  0  0  0  0  0  0999 V2000
   45.6541   58.7114   31.4674 N   0  0  0  0  0  0  0  0  0  0  0  0
   46.2435   58.1685   32.6892 C   0  0  2  0  0  0  0  0  0  0  0  0
   47.7603   57.9801   32.6177 C   0  0  0  0  0  0  0  0  0  0  0  0
   48.4449   58.5746   33.3824 O   0  0  0  0  0  0  0  0  0  0  0  0
   45.5109   56.9385   33.2650 C   0  0  0  0  0  0  0  0  0  0  0  0
   45.1006   55.7797   32.3143 C   0  0  0  0  0  0  0  0  0  0  0  0
   44.6907   54.4529   33.0071 C   0  0  2  0  0  0  0  0  0  0  0  0
   43.8028   54.6587   34.1513 N   0  0  0  0  0  0  0  0  0  0  0  0
   45.9237   53.5579   33.3418 C   0  0  0  0  0  0  0  0  0  0  0  0
   47.1784   54.2280   33.9970 C   0  0  1  0  0  0  0  0  0  0  0  0
   47.0177   54.9709   35.2418 O   0  0  0  0  0  0  0  0  0  0  0  0
   48.4120   53.3155   34.2449 C   0  0  1  0  0  0  0  0  0  0  0  0
   49.1011   52.7960   33.1001 O   0  0  0  0  0  0  0  0  0  0  0  0
   49.2283   54.0282   35.3673 C   0  0  1  0  0  0  0  0  0  0  0  0
   50.4611   54.6115   35.0196 O   0  0  0  0  0  0  0  0  0  0  0  0
   48.1692   54.8933   36.0577 C   0  0  2  0  0  0  0  0  0  0  0  0
   48.2631   56.8049   32.0247 O   0  0  0  0  0  0  0  0  0  0  0  0
   44.2690   53.1492   39.4094 N   0  0  0  0  0  0  0  0  0  0  0  0
   44.1278   53.5576   38.0782 C   0  0  0  0  0  0  0  0  0  0  0  0
   45.2963   54.0006   37.3209 N   0  0  0  0  0  0  0  0  0  0  0  0
   46.5319   54.0156   37.9110 C   0  0  0  0  0  0  0  0  0  0  0  0
   46.6650   53.6047   39.2517 C   0  0  0  0  0  0  0  0  0  0  0  0
   45.4999   53.1641   40.0060 C   0  0  0  0  0  0  0  0  0  0  0  0
   45.6363   52.7360   41.3986 N   0  0  0  0  0  0  0  0  0  0  0  0
   48.0558   53.7203   39.6166 N   0  0  0  0  0  0  0  0  0  0  0  0
   48.7585   54.2055   38.4886 C   0  0  0  0  0  0  0  0  0  0  0  0
   47.8327   54.3927   37.4219 N   0  0  0  0  0  0  0  0  0  0  0  0
  2  1  1  6  0  0  0
  2  3  1  0  0  0  0
  2  5  1  0  0  0  0
  3  4  1  0  0  0  0
  3 17  1  0  0  0  0
  5  6  1  0  0  0  0
  7  6  1  1  0  0  0
  7  8  1  0  0  0  0
  7  9  1  0  0  0  0
 10  9  1  1  0  0  0
 10 11  1  0  0  0  0
 10 12  1  0  0  0  0
 11 16  1  0  0  0  0
 12 13  1  6  0  0  0
 12 14  1  0  0  0  0
 14 15  1  6  0  0  0
 14 16  1  0  0  0  0
 16 27  1  1  0  0  0
 18 19  2  0  0  0  0
 18 23  1  0  0  0  0
 19 20  1  0  0  0  0
 20 21  2  0  0  0  0
 21 22  1  0  0  0  0
 21 27  1  0  0  0  0
 22 23  2  0  0  0  0
 22 25  1  0  0  0  0
 23 24  1  0  0  0  0
 25 26  2  0  0  0  0
 26 27  1  0  0  0  0
M  END
>  <CHROM.1>
119.15445244,46.41943677,165.65884267,44.47596503,45.43097987,56.04832258
0.19232190,46.85310638,54.89379392,35.45728038,1.47406292,0.08855078,-1.08856893

>  <Name>
ligand

>  <RI>
0

>  <Rbt.Current_Directory>
/home/itssahil/PROJECTS/Mol_Feturizer/New_Systems/rnas/3GX2

>  <Rbt.Executable>
rbdock ($Id: //depot/dev/client3/rdock/2013.1/src/exe/rbdock.cxx#4 $)

>  <Rbt.Library>
libRbt.so (2013.1, Build901 2013/11/27)

>  <Rbt.Parameter_File>
/export/apps/rDock/src/rDock_2013.1_src/data/scripts/dock_solv.prm

>  <Rbt.Receptor>
prm/pocket_docking_8.prm

>  <SCORE>
-13.7827

>  <SCORE.INTER>
-11.1132

>  <SCORE.INTER.CONST>
1

>  <SCORE.INTER.POLAR>
0

>  <SCORE.INTER.ROT>
7

>  <SCORE.INTER.SOLV>
11.6854

>  <SCORE.INTER.VDW>
-19.5706

>  <SCORE.INTER.norm>
-0.4116

>  <SCORE.INTRA>
-2.66952

>  <SCORE.INTRA.DIHEDRAL>
-6.03201

>  <SCORE.INTRA.DIHEDRAL.0>
13.9704

>  <SCORE.INTRA.POLAR>
0

>  <SCORE.INTRA.POLAR.0>
0

>  <SCORE.INTRA.REPUL>
0

>  <SCORE.INTRA.REPUL.0>
0

>  <SCORE.INTRA.SOLV>
2.13968

>  <SCORE.INTRA.SOLV.lig_0>
-70.9758

>  <SCORE.INTRA.VDW>
-0.723353

>  <SCORE.INTRA.VDW.0>
-2.70686

>  <SCORE.INTRA.norm>
-0.098871

>  <SCORE.RESTR>
0

>  <SCORE.RESTR.CAVITY>
0

>  <SCORE.RESTR.norm>
0

>  <SCORE.SYSTEM>
0

>  <SCORE.SYSTEM.CONST>
0

>  <SCORE.SYSTEM.DIHEDRAL>
0

>  <SCORE.SYSTEM.SOLV>
0

>  <SCORE.SYSTEM.norm>
0

>  <SCORE.heavy>
27

>  <SCORE.norm>
-0.510471

>  <RMSD>
6.596

$$$$
ligand
 OpenBabel11021811473D
libRbt.so/2013.1/901 2013/11/27
 27 29  0  0  0  0  0  0  0  0999 V2000
   50.1719   54.8721   34.6531 N   0  0  0  0  0  0  0  0  0  0  0  0
   48.9909   55.7199   34.5058 C   0  0  2  0  0  0  0  0  0  0  0  0
   47.6909   54.9432   34.2869 C   0  0  0  0  0  0  0  0  0  0  0  0
   46.6688   55.4331   34.6361 O   0  0  0  0  0  0  0  0  0  0  0  0
   49.1622   56.8959   33.5216 C   0  0  0  0  0  0  0  0  0  0  0  0
   47.9811   57.8802   33.2948 C   0  0  0  0  0  0  0  0  0  0  0  0
   48.2576   59.0494   32.3125 C   0  0  2  0  0  0  0  0  0  0  0  0
   49.3836   59.8865   32.7264 N   0  0  0  0  0  0  0  0  0  0  0  0
   46.9690   59.8691   31.9951 C   0  0  0  0  0  0  0  0  0  0  0  0
   45.9410   59.2799   30.9712 C   0  0  1  0  0  0  0  0  0  0  0  0
   46.1873   59.4449   29.5432 O   0  0  0  0  0  0  0  0  0  0  0  0
   45.5732   57.7783   31.1316 C   0  0  1  0  0  0  0  0  0  0  0  0
   44.8527   57.3877   32.3078 O   0  0  0  0  0  0  0  0  0  0  0  0
   45.0449   57.3353   29.7320 C   0  0  1  0  0  0  0  0  0  0  0  0
   43.6715   57.0569   29.6013 O   0  0  0  0  0  0  0  0  0  0  0  0
   45.6849   58.3597   28.7898 C   0  0  2  0  0  0  0  0  0  0  0  0
   47.6637   53.9486   33.2890 O   0  0  0  0  0  0  0  0  0  0  0  0
   47.1724   54.1387   25.7143 N   0  0  0  0  0  0  0  0  0  0  0  0
   45.9620   54.3112   26.3955 C   0  0  0  0  0  0  0  0  0  0  0  0
   45.7314   55.5203   27.1828 N   0  0  0  0  0  0  0  0  0  0  0  0
   46.6976   56.4879   27.2546 C   0  0  0  0  0  0  0  0  0  0  0  0
   47.9137   56.3056   26.5675 C   0  0  0  0  0  0  0  0  0  0  0  0
   48.1431   55.1000   25.7837 C   0  0  0  0  0  0  0  0  0  0  0  0
   49.4055   54.9093   25.0685 N   0  0  0  0  0  0  0  0  0  0  0  0
   48.7411   57.4615   26.8131 N   0  0  0  0  0  0  0  0  0  0  0  0
   48.0171   58.3391   27.6540 C   0  0  0  0  0  0  0  0  0  0  0  0
   46.7487   57.7550   27.9368 N   0  0  0  0  0  0  0  0  0  0  0  0
  2  1  1  6  0  0  0
  2  3  1  0  0  0  0
  2  5  1  0  0  0  0
  3  4  1  0  0  0  0
  3 17  1  0  0  0  0
  5  6  1  0  0  0  0
  7  6  1  1  0  0  0
  7  8  1  0  0  0  0
  7  9  1  0  0  0  0
 10  9  1  1  0  0  0
 10 11  1  0  0  0  0
 10 12  1  0  0  0  0
 11 16  1  0  0  0  0
 12 13  1  1  0  0  0
 12 14  1  0  0  0  0
 14 15  1  1  0  0  0
 14 16  1  0  0  0  0
 16 27  1  1  0  0  0
 18 19  2  0  0  0  0
 18 23  1  0  0  0  0
 19 20  1  0  0  0  0
 20 21  2  0  0  0  0
 21 22  1  0  0  0  0
 21 27  1  0  0  0  0
 22 23  2  0  0  0  0
 22 25  1  0  0  0  0
 23 24  1  0  0  0  0
 25 26  2  0  0  0  0
 26 27  1  0  0  0  0
M  END
>  <CHROM.1>
152.56822005,-179.16965585,178.65069274,-58.56912285,-78.16125052,-81.51473514
166.17707738,47.16846990,56.87246253,30.24585917,-1.35151502,1.04815473,-1.86013487

>  <Name>
ligand

>  <RI>
0

>  <Rbt.Current_Directory>
/home/itssahil/PROJECTS/Mol_Feturizer/New_Systems/rnas/3GX2

>  <Rbt.Executable>
rbdock ($Id: //depot/dev/client3/rdock/2013.1/src/exe/rbdock.cxx#4 $)

>  <Rbt.Library>
libRbt.so (2013.1, Build901 2013/11/27)

>  <Rbt.Parameter_File>
/export/apps/rDock/src/rDock_2013.1_src/data/scripts/dock_solv.prm

>  <Rbt.Receptor>
prm/pocket_docking_5.prm

>  <SCORE>
-11.7875

>  <SCORE.INTER>
-8.90728

>  <SCORE.INTER.CONST>
1

>  <SCORE.INTER.POLAR>
0

>  <SCORE.INTER.ROT>
7

>  <SCORE.INTER.SOLV>
19.3438

>  <SCORE.INTER.VDW>
-20.6528

>  <SCORE.INTER.norm>
-0.329899

>  <SCORE.INTRA>
-2.88022

>  <SCORE.INTRA.DIHEDRAL>
-6.45463

>  <SCORE.INTRA.DIHEDRAL.0>
13.9704

>  <SCORE.INTRA.POLAR>
0

>  <SCORE.INTRA.POLAR.0>
0

>  <SCORE.INTRA.REPUL>
0

>  <SCORE.INTRA.REPUL.0>
0

>  <SCORE.INTRA.SOLV>
0.319192

>  <SCORE.INTRA.SOLV.lig_0>
-70.9758

>  <SCORE.INTRA.VDW>
0.187494

>  <SCORE.INTRA.VDW.0>
-2.70686

>  <SCORE.INTRA.norm>
-0.106675

>  <SCORE.RESTR>
0

>  <SCORE.RESTR.CAVITY>
0

>  <SCORE.RESTR.norm>
0

>  <SCORE.SYSTEM>
0

>  <SCORE.SYSTEM.CONST>
0

>  <SCORE.SYSTEM.DIHEDRAL>
0

>  <SCORE.SYSTEM.SOLV>
0

>  <SCORE.SYSTEM.norm>
0

>  <SCORE.heavy>
27

>  <SCORE.norm>
-0.436574

>  <RMSD>
6.602

$$$$
ligand
 OpenBabel11021811473D
libRbt.so/2013.1/901 2013/11/27
 27 29  0  0  0  0  0  0  0  0999 V2000
   48.0678   54.4355   33.3971 N   0  0  0  0  0  0  0  0  0  0  0  0
   48.9257   55.2377   34.2663 C   0  0  2  0  0  0  0  0  0  0  0  0
   48.8168   54.8798   35.7500 C   0  0  0  0  0  0  0  0  0  0  0  0
   49.5016   55.4576   36.5272 O   0  0  0  0  0  0  0  0  0  0  0  0
   48.8617   56.7576   34.0078 C   0  0  0  0  0  0  0  0  0  0  0  0
   49.1401   57.3016   32.5789 C   0  0  0  0  0  0  0  0  0  0  0  0
   49.1917   58.8469   32.4446 C   0  0  2  0  0  0  0  0  0  0  0  0
   50.0918   59.4728   33.4130 N   0  0  0  0  0  0  0  0  0  0  0  0
   47.7682   59.4847   32.4301 C   0  0  0  0  0  0  0  0  0  0  0  0
   46.7540   59.0254   31.3289 C   0  0  1  0  0  0  0  0  0  0  0  0
   47.1931   58.9675   29.9392 O   0  0  0  0  0  0  0  0  0  0  0  0
   46.0282   57.6712   31.5643 C   0  0  1  0  0  0  0  0  0  0  0  0
   45.1071   57.5873   32.6596 O   0  0  0  0  0  0  0  0  0  0  0  0
   45.5735   57.1998   30.1483 C   0  0  1  0  0  0  0  0  0  0  0  0
   44.1972   57.2202   29.8548 O   0  0  0  0  0  0  0  0  0  0  0  0
   46.5391   57.9421   29.2190 C   0  0  2  0  0  0  0  0  0  0  0  0
   47.6316   54.2704   36.2078 O   0  0  0  0  0  0  0  0  0  0  0  0
   47.9308   52.7939   28.1958 N   0  0  0  0  0  0  0  0  0  0  0  0
   46.8158   53.2488   28.9092 C   0  0  0  0  0  0  0  0  0  0  0  0
   46.5972   54.6823   29.0888 N   0  0  0  0  0  0  0  0  0  0  0  0
   47.4811   55.5837   28.5583 C   0  0  0  0  0  0  0  0  0  0  0  0
   48.6016   55.1174   27.8434 C   0  0  0  0  0  0  0  0  0  0  0  0
   48.8192   53.6886   27.6655 C   0  0  0  0  0  0  0  0  0  0  0  0
   49.9822   53.2024   26.9222 N   0  0  0  0  0  0  0  0  0  0  0  0
   49.3568   56.2646   27.4023 N   0  0  0  0  0  0  0  0  0  0  0  0
   48.6859   57.4237   27.8582 C   0  0  0  0  0  0  0  0  0  0  0  0
   47.5212   57.0230   28.5743 N   0  0  0  0  0  0  0  0  0  0  0  0
  2  1  1  6  0  0  0
  2  3  1  0  0  0  0
  2  5  1  0  0  0  0
  3  4  1  0  0  0  0
  3 17  1  0  0  0  0
  5  6  1  0  0  0  0
  7  6  1  1  0  0  0
  7  8  1  0  0  0  0
  7  9  1  0  0  0  0
 10  9  1  1  0  0  0
 10 11  1  0  0  0  0
 10 12  1  0  0  0  0
 11 16  1  0  0  0  0
 12 13  1  1  0  0  0
 12 14  1  0  0  0  0
 14 15  1  6  0  0  0
 14 16  1  0  0  0  0
 16 27  1  1  0  0  0
 18 19  2  0  0  0  0
 18 23  1  0  0  0  0
 19 20  1  0  0  0  0
 20 21  2  0  0  0  0
 21 22  1  0  0  0  0
 21 27  1  0  0  0  0
 22 23  2  0  0  0  0
 22 25  1  0  0  0  0
 23 24  1  0  0  0  0
 25 26  2  0  0  0  0
 26 27  1  0  0  0  0
M  END
>  <CHROM.1>
178.18737929,-54.97534048,-174.18321115,51.40383697,-57.84365750,-47.89801442
134.91910385,47.79304807,56.35366122,31.10136843,-1.32842271,1.19610035,-1.96895776

>  <Name>
ligand

>  <RI>
0

>  <Rbt.Current_Directory>
/home/itssahil/PROJECTS/Mol_Feturizer/New_Systems/rnas/3GX2

>  <Rbt.Executable>
rbdock ($Id: //depot/dev/client3/rdock/2013.1/src/exe/rbdock.cxx#4 $)

>  <Rbt.Library>
libRbt.so (2013.1, Build901 2013/11/27)

>  <Rbt.Parameter_File>
/export/apps/rDock/src/rDock_2013.1_src/data/scripts/dock_solv.prm

>  <Rbt.Receptor>
prm/pocket_docking_3.prm

>  <SCORE>
-9.41484

>  <SCORE.INTER>
-5.8627

>  <SCORE.INTER.CONST>
1

>  <SCORE.INTER.POLAR>
0

>  <SCORE.INTER.ROT>
7

>  <SCORE.INTER.SOLV>
14.0062

>  <SCORE.INTER.VDW>
-16.8439

>  <SCORE.INTER.norm>
-0.217137

>  <SCORE.INTRA>
-3.55214

>  <SCORE.INTRA.DIHEDRAL>
-8.32911

>  <SCORE.INTRA.DIHEDRAL.0>
13.9704

>  <SCORE.INTRA.POLAR>
0

>  <SCORE.INTRA.POLAR.0>
0

>  <SCORE.INTRA.REPUL>
0

>  <SCORE.INTRA.REPUL.0>
0

>  <SCORE.INTRA.SOLV>
0.750816

>  <SCORE.INTRA.SOLV.lig_0>
-70.9758

>  <SCORE.INTRA.VDW>
0.237008

>  <SCORE.INTRA.VDW.0>
-2.70686

>  <SCORE.INTRA.norm>
-0.131561

>  <SCORE.RESTR>
0

>  <SCORE.RESTR.CAVITY>
0

>  <SCORE.RESTR.norm>
0

>  <SCORE.SYSTEM>
0

>  <SCORE.SYSTEM.CONST>
0

>  <SCORE.SYSTEM.DIHEDRAL>
0

>  <SCORE.SYSTEM.SOLV>
0

>  <SCORE.SYSTEM.norm>
0

>  <SCORE.heavy>
27

>  <SCORE.norm>
-0.348698

>  <RMSD>
6.610

$$$$
ligand
 OpenBabel11021811473D
libRbt.so/2013.1/901 2013/11/27
 27 29  0  0  0  0  0  0  0  0999 V2000
   47.6602   52.3033   35.6318 N   0  0  0  0  0  0  0  0  0  0  0  0
   47.7884   53.6905   35.1912 C   0  0  2  0  0  0  0  0  0  0  0  0
   48.3669   54.6292   36.2520 C   0  0  0  0  0  0  0  0  0  0  0  0
   49.0245   55.5513   35.8994 O   0  0  0  0  0  0  0  0  0  0  0  0
   46.5337   54.2643   34.5000 C   0  0  0  0  0  0  0  0  0  0  0  0
   46.5746   55.7038   33.9158 C   0  0  0  0  0  0  0  0  0  0  0  0
   45.4213   56.0694   32.9439 C   0  0  2  0  0  0  0  0  0  0  0  0
   45.4337   55.2696   31.7191 N   0  0  0  0  0  0  0  0  0  0  0  0
   45.3436   57.6036   32.6729 C   0  0  0  0  0  0  0  0  0  0  0  0
   46.6775   58.3905   32.4404 C   0  0  1  0  0  0  0  0  0  0  0  0
   47.8354   57.6827   31.9061 O   0  0  0  0  0  0  0  0  0  0  0  0
   46.5876   59.6878   31.5891 C   0  0  1  0  0  0  0  0  0  0  0  0
   45.8542   60.7942   32.1307 O   0  0  0  0  0  0  0  0  0  0  0  0
   48.0321   59.9225   31.0483 C   0  0  1  0  0  0  0  0  0  0  0  0
   48.7636   61.0080   31.5653 O   0  0  0  0  0  0  0  0  0  0  0  0
   48.6469   58.5206   31.1079 C   0  0  2  0  0  0  0  0  0  0  0  0
   47.7426   54.6810   37.5143 O   0  0  0  0  0  0  0  0  0  0  0  0
   50.6928   54.4093   28.2099 N   0  0  0  0  0  0  0  0  0  0  0  0
   50.7212   54.5679   29.6002 C   0  0  0  0  0  0  0  0  0  0  0  0
   50.1165   55.7478   30.2144 N   0  0  0  0  0  0  0  0  0  0  0  0
   49.5193   56.6998   29.4319 C   0  0  0  0  0  0  0  0  0  0  0  0
   49.4968   56.5333   28.0334 C   0  0  0  0  0  0  0  0  0  0  0  0
   50.1003   55.3576   27.4219 C   0  0  0  0  0  0  0  0  0  0  0  0
   50.0771   55.1824   25.9692 N   0  0  0  0  0  0  0  0  0  0  0  0
   48.8163   57.6692   27.4609 N   0  0  0  0  0  0  0  0  0  0  0  0
   48.4319   58.5214   28.5227 C   0  0  0  0  0  0  0  0  0  0  0  0
   48.8564   57.9376   29.7511 N   0  0  0  0  0  0  0  0  0  0  0  0
  2  1  1  1  0  0  0
  2  3  1  0  0  0  0
  2  5  1  0  0  0  0
  3  4  1  0  0  0  0
  3 17  1  0  0  0  0
  5  6  1  0  0  0  0
  7  6  1  6  0  0  0
  7  8  1  0  0  0  0
  7  9  1  0  0  0  0
 10  9  1  6  0  0  0
 10 11  1  0  0  0  0
 10 12  1  0  0  0  0
 11 16  1  0  0  0  0
 12 13  1  1  0  0  0
 12 14  1  0  0  0  0
 14 15  1  1  0  0  0
 14 16  1  0  0  0  0
 16 27  1  6  0  0  0
 18 19  2  0  0  0  0
 18 23  1  0  0  0  0
 19 20  1  0  0  0  0
 20 21  2  0  0  0  0
 21 22  1  0  0  0  0
 21 27  1  0  0  0  0
 22 23  2  0  0  0  0
 22 25  1  0  0  0  0
 23 24  1  0  0  0  0
 25 26  2  0  0  0  0
 26 27  1  0  0  0  0
M  END
>  <CHROM.1>
148.19884879,-176.58165735,165.34467765,-64.25683907,42.27698372,26.70407455
-62.93352207,48.08051942,56.63799247,31.69411680,-2.13237781,1.05427723,-0.76452123

>  <Name>
ligand

>  <RI>
0

>  <Rbt.Current_Directory>
/home/itssahil/PROJECTS/Mol_Feturizer/New_Systems/rnas/3GX2

>  <Rbt.Executable>
rbdock ($Id: //depot/dev/client3/rdock/2013.1/src/exe/rbdock.cxx#4 $)

>  <Rbt.Library>
libRbt.so (2013.1, Build901 2013/11/27)

>  <Rbt.Parameter_File>
/export/apps/rDock/src/rDock_2013.1_src/data/scripts/dock_solv.prm

>  <Rbt.Receptor>
prm/pocket_docking_5.prm

>  <SCORE>
-12.2933

>  <SCORE.INTER>
-11.8158

>  <SCORE.INTER.CONST>
1

>  <SCORE.INTER.POLAR>
0

>  <SCORE.INTER.ROT>
7

>  <SCORE.INTER.SOLV>
17.4967

>  <SCORE.INTER.VDW>
-21.9761

>  <SCORE.INTER.norm>
-0.437622

>  <SCORE.INTRA>
-0.477466

>  <SCORE.INTRA.DIHEDRAL>
-3.8425

>  <SCORE.INTRA.DIHEDRAL.0>
13.9704

>  <SCORE.INTRA.POLAR>
0

>  <SCORE.INTRA.POLAR.0>
0

>  <SCORE.INTRA.REPUL>
0

>  <SCORE.INTRA.REPUL.0>
0

>  <SCORE.INTRA.SOLV>
0.78384

>  <SCORE.INTRA.SOLV.lig_0>
-70.9758

>  <SCORE.INTRA.VDW>
1.05186

>  <SCORE.INTRA.VDW.0>
-2.70686

>  <SCORE.INTRA.norm>
-0.0176839

>  <SCORE.RESTR>
0

>  <SCORE.RESTR.CAVITY>
0

>  <SCORE.RESTR.norm>
0

>  <SCORE.SYSTEM>
0

>  <SCORE.SYSTEM.CONST>
0

>  <SCORE.SYSTEM.DIHEDRAL>
0

>  <SCORE.SYSTEM.SOLV>
0

>  <SCORE.SYSTEM.norm>
0

>  <SCORE.heavy>
27

>  <SCORE.norm>
-0.455306

>  <RMSD>
6.617

$$$$
ligand
 OpenBabel11021811473D
libRbt.so/2013.1/901 2013/11/27
 27 29  0  0  0  0  0  0  0  0999 V2000
   48.7692   55.1845   32.9911 N   0  0  0  0  0  0  0  0  0  0  0  0
   49.4717   55.7181   34.1559 C   0  0  2  0  0  0  0  0  0  0  0  0
   49.3155   54.8693   35.4194 C   0  0  0  0  0  0  0  0  0  0  0  0
   49.4156   55.3977   36.4767 O   0  0  0  0  0  0  0  0  0  0  0  0
   49.2445   57.2230   34.4102 C   0  0  0  0  0  0  0  0  0  0  0  0
   49.6195   58.2494   33.3052 C   0  0  0  0  0  0  0  0  0  0  0  0
   48.6894   58.2721   32.0631 C   0  0  2  0  0  0  0  0  0  0  0  0
   49.2961   58.9362   30.9095 N   0  0  0  0  0  0  0  0  0  0  0  0
   47.2663   58.8133   32.4029 C   0  0  0  0  0  0  0  0  0  0  0  0
   46.1232   58.6245   31.3493 C   0  0  1  0  0  0  0  0  0  0  0  0
   46.3392   59.0751   29.9791 O   0  0  0  0  0  0  0  0  0  0  0  0
   45.5356   57.1933   31.2002 C   0  0  1  0  0  0  0  0  0  0  0  0
   44.8076   56.6499   32.3092 O   0  0  0  0  0  0  0  0  0  0  0  0
   44.8946   57.1609   29.7782 C   0  0  1  0  0  0  0  0  0  0  0  0
   43.4908   57.1163   29.6865 O   0  0  0  0  0  0  0  0  0  0  0  0
   45.6490   58.2726   29.0423 C   0  0  2  0  0  0  0  0  0  0  0  0
   48.6047   53.6560   35.3288 O   0  0  0  0  0  0  0  0  0  0  0  0
   47.0244   54.0157   25.9642 N   0  0  0  0  0  0  0  0  0  0  0  0
   45.9820   54.0919   26.8952 C   0  0  0  0  0  0  0  0  0  0  0  0
   45.7559   55.3280   27.6407 N   0  0  0  0  0  0  0  0  0  0  0  0
   46.5616   56.4149   27.4293 C   0  0  0  0  0  0  0  0  0  0  0  0
   47.6095   56.3292   26.4919 C   0  0  0  0  0  0  0  0  0  0  0  0
   47.8348   55.0967   25.7498 C   0  0  0  0  0  0  0  0  0  0  0  0
   48.9223   55.0060   24.7749 N   0  0  0  0  0  0  0  0  0  0  0  0
   48.2920   57.5999   26.4700 N   0  0  0  0  0  0  0  0  0  0  0  0
   47.6505   58.4498   27.4015 C   0  0  0  0  0  0  0  0  0  0  0  0
   46.5754   57.7350   28.0042 N   0  0  0  0  0  0  0  0  0  0  0  0
  2  1  1  6  0  0  0
  2  3  1  0  0  0  0
  2  5  1  0  0  0  0
  3  4  1  0  0  0  0
  3 17  1  0  0  0  0
  5  6  1  0  0  0  0
  7  6  1  1  0  0  0
  7  8  1  0  0  0  0
  7  9  1  0  0  0  0
 10  9  1  1  0  0  0
 10 11  1  0  0  0  0
 10 12  1  0  0  0  0
 11 16  1  0  0  0  0
 12 13  1  1  0  0  0
 12 14  1  0  0  0  0
 14 15  1  1  0  0  0
 14 16  1  0  0  0  0
 16 27  1  6  0  0  0
 18 19  2  0  0  0  0
 18 23  1  0  0  0  0
 19 20  1  0  0  0  0
 20 21  2  0  0  0  0
 21 22  1  0  0  0  0
 21 27  1  0  0  0  0
 22 23  2  0  0  0  0
 22 25  1  0  0  0  0
 23 24  1  0  0  0  0
 25 26  2  0  0  0  0
 26 27  1  0  0  0  0
M  END
>  <CHROM.1>
-153.71708504,-58.43951871,71.98568612,-162.55847104,-167.37432439,-52.70461406
140.18271102,47.34991719,56.68395963,30.41387793,-1.18501153,0.88166912,-1.86841114

>  <Name>
ligand

>  <RI>
0

>  <Rbt.Current_Directory>
/home/itssahil/PROJECTS/Mol_Feturizer/New_Systems/rnas/3GX2

>  <Rbt.Executable>
rbdock ($Id: //depot/dev/client3/rdock/2013.1/src/exe/rbdock.cxx#4 $)

>  <Rbt.Library>
libRbt.so (2013.1, Build901 2013/11/27)

>  <Rbt.Parameter_File>
/export/apps/rDock/src/rDock_2013.1_src/data/scripts/dock_solv.prm

>  <Rbt.Receptor>
prm/pocket_docking_4.prm

>  <SCORE>
-13.0792

>  <SCORE.INTER>
-11.8241

>  <SCORE.INTER.CONST>
1

>  <SCORE.INTER.POLAR>
0

>  <SCORE.INTER.ROT>
7

>  <SCORE.INTER.SOLV>
14.2977

>  <SCORE.INTER.VDW>
-20.9153

>  <SCORE.INTER.norm>
-0.437931

>  <SCORE.INTRA>
-1.25505

>  <SCORE.INTRA.DIHEDRAL>
-7.18614

>  <SCORE.INTRA.DIHEDRAL.0>
13.9704

>  <SCORE.INTRA.POLAR>
0

>  <SCORE.INTRA.POLAR.0>
0

>  <SCORE.INTRA.REPUL>
0

>  <SCORE.INTRA.REPUL.0>
0

>  <SCORE.INTRA.SOLV>
3.36042

>  <SCORE.INTRA.SOLV.lig_0>
-70.9758

>  <SCORE.INTRA.VDW>
0.657816

>  <SCORE.INTRA.VDW.0>
-2.70686

>  <SCORE.INTRA.norm>
-0.0464832

>  <SCORE.RESTR>
0

>  <SCORE.RESTR.CAVITY>
0

>  <SCORE.RESTR.norm>
0

>  <SCORE.SYSTEM>
0

>  <SCORE.SYSTEM.CONST>
0

>  <SCORE.SYSTEM.DIHEDRAL>
0

>  <SCORE.SYSTEM.SOLV>
0

>  <SCORE.SYSTEM.norm>
0

>  <SCORE.heavy>
27

>  <SCORE.norm>
-0.484414

>  <RMSD>
6.622

$$$$
ligand
 OpenBabel11021811473D
libRbt.so/2013.1/901 2013/11/27
 27 29  0  0  0  0  0  0  0  0999 V2000
   48.6592   54.6599   32.7610 N   0  0  0  0  0  0  0  0  0  0  0  0
   49.1283   55.6215   33.7561 C   0  0  2  0  0  0  0  0  0  0  0  0
   48.8682   55.1967   35.2028 C   0  0  0  0  0  0  0  0  0  0  0  0
   49.3759   55.8152   36.0783 O   0  0  0  0  0  0  0  0  0  0  0  0
   48.7249   57.0845   33.4767 C   0  0  0  0  0  0  0  0  0  0  0  0
   48.8547   57.6506   32.0353 C   0  0  0  0  0  0  0  0  0  0  0  0
   48.6345   59.1799   31.8897 C   0  0  2  0  0  0  0  0  0  0  0  0
   49.6012   59.9695   32.6526 N   0  0  0  0  0  0  0  0  0  0  0  0
   47.1550   59.5906   32.1649 C   0  0  0  0  0  0  0  0  0  0  0  0
   46.0425   59.0768   31.1899 C   0  0  1  0  0  0  0  0  0  0  0  0
   46.1731   59.3410   29.7615 O   0  0  0  0  0  0  0  0  0  0  0  0
   45.6770   57.5685   31.2748 C   0  0  1  0  0  0  0  0  0  0  0  0
   45.0515   57.0981   32.4760 O   0  0  0  0  0  0  0  0  0  0  0  0
   45.0331   57.2259   29.8957 C   0  0  1  0  0  0  0  0  0  0  0  0
   43.6514   56.9604   29.8586 O   0  0  0  0  0  0  0  0  0  0  0  0
   45.6025   58.3123   28.9779 C   0  0  2  0  0  0  0  0  0  0  0  0
   47.7101   54.4444   35.4831 O   0  0  0  0  0  0  0  0  0  0  0  0
   47.0992   54.0638   25.9451 N   0  0  0  0  0  0  0  0  0  0  0  0
   45.9950   54.1524   26.8005 C   0  0  0  0  0  0  0  0  0  0  0  0
   45.7437   55.3839   27.5456 N   0  0  0  0  0  0  0  0  0  0  0  0
   46.5864   56.4544   27.4076 C   0  0  0  0  0  0  0  0  0  0  0  0
   47.6965   56.3562   26.5460 C   0  0  0  0  0  0  0  0  0  0  0  0
   47.9467   55.1283   25.8044 C   0  0  0  0  0  0  0  0  0  0  0  0
   49.0988   55.0248   24.9081 N   0  0  0  0  0  0  0  0  0  0  0  0
   48.4069   57.6109   26.5909 N   0  0  0  0  0  0  0  0  0  0  0  0
   47.7195   58.4637   27.4864 C   0  0  0  0  0  0  0  0  0  0  0  0
   46.5885   57.7665   28.0009 N   0  0  0  0  0  0  0  0  0  0  0  0
  2  1  1  6  0  0  0
  2  3  1  0  0  0  0
  2  5  1  0  0  0  0
  3  4  1  0  0  0  0
  3 17  1  0  0  0  0
  5  6  1  0  0  0  0
  7  6  1  1  0  0  0
  7  8  1  0  0  0  0
  7  9  1  0  0  0  0
 10  9  1  1  0  0  0
 10 11  1  0  0  0  0
 10 12  1  0  0  0  0
 11 16  1  0  0  0  0
 12 13  1  1  0  0  0
 12 14  1  0  0  0  0
 14 15  1  1  0  0  0
 14 16  1  0  0  0  0
 16 27  1  6  0  0  0
 18 19  2  0  0  0  0
 18 23  1  0  0  0  0
 19 20  1  0  0  0  0
 20 21  2  0  0  0  0
 21 22  1  0  0  0  0
 21 27  1  0  0  0  0
 22 23  2  0  0  0  0
 22 25  1  0  0  0  0
 23 24  1  0  0  0  0
 25 26  2  0  0  0  0
 26 27  1  0  0  0  0
M  END
>  <CHROM.1>
169.54358325,-43.96087597,-171.04692205,61.12106933,-64.95500859,-54.79451144
154.91373953,47.27399734,56.86508367,30.35227203,-1.17584648,1.09776750,-1.98979213

>  <Name>
ligand

>  <RI>
0

>  <Rbt.Current_Directory>
/home/itssahil/PROJECTS/Mol_Feturizer/New_Systems/rnas/3GX2

>  <Rbt.Executable>
rbdock ($Id: //depot/dev/client3/rdock/2013.1/src/exe/rbdock.cxx#4 $)

>  <Rbt.Library>
libRbt.so (2013.1, Build901 2013/11/27)

>  <Rbt.Parameter_File>
/export/apps/rDock/src/rDock_2013.1_src/data/scripts/dock_solv.prm

>  <Rbt.Receptor>
prm/pocket_docking_6.prm

>  <SCORE>
-13.0092

>  <SCORE.INTER>
-9.51621

>  <SCORE.INTER.CONST>
1

>  <SCORE.INTER.POLAR>
0

>  <SCORE.INTER.ROT>
7

>  <SCORE.INTER.SOLV>
15.9993

>  <SCORE.INTER.VDW>
-19.9439

>  <SCORE.INTER.norm>
-0.352452

>  <SCORE.INTRA>
-3.49295

>  <SCORE.INTRA.DIHEDRAL>
-8.04104

>  <SCORE.INTRA.DIHEDRAL.0>
13.9704

>  <SCORE.INTRA.POLAR>
0

>  <SCORE.INTRA.POLAR.0>
0

>  <SCORE.INTRA.REPUL>
0

>  <SCORE.INTRA.REPUL.0>
0

>  <SCORE.INTRA.SOLV>
0.625515

>  <SCORE.INTRA.SOLV.lig_0>
-70.9758

>  <SCORE.INTRA.VDW>
0.214808

>  <SCORE.INTRA.VDW.0>
-2.70686

>  <SCORE.INTRA.norm>
-0.129369

>  <SCORE.RESTR>
0

>  <SCORE.RESTR.CAVITY>
0

>  <SCORE.RESTR.norm>
0

>  <SCORE.SYSTEM>
0

>  <SCORE.SYSTEM.CONST>
0

>  <SCORE.SYSTEM.DIHEDRAL>
0

>  <SCORE.SYSTEM.SOLV>
0

>  <SCORE.SYSTEM.norm>
0

>  <SCORE.heavy>
27

>  <SCORE.norm>
-0.481821

>  <RMSD>
6.625

$$$$
ligand
 OpenBabel11021811483D
libRbt.so/2013.1/901 2013/11/27
 27 29  0  0  0  0  0  0  0  0999 V2000
   49.8666   59.7510   32.5968 N   0  0  0  0  0  0  0  0  0  0  0  0
   48.5936   59.1767   32.1669 C   0  0  2  0  0  0  0  0  0  0  0  0
   47.5729   60.2126   31.6910 C   0  0  0  0  0  0  0  0  0  0  0  0
   47.7555   61.3548   31.9536 O   0  0  0  0  0  0  0  0  0  0  0  0
   47.9921   58.1435   33.1425 C   0  0  0  0  0  0  0  0  0  0  0  0
   48.7819   56.8434   33.4605 C   0  0  0  0  0  0  0  0  0  0  0  0
   48.0668   55.8324   34.3958 C   0  0  2  0  0  0  0  0  0  0  0  0
   48.9007   54.6780   34.7303 N   0  0  0  0  0  0  0  0  0  0  0  0
   46.6553   55.4349   33.8639 C   0  0  0  0  0  0  0  0  0  0  0  0
   45.6780   54.6808   34.8277 C   0  0  1  0  0  0  0  0  0  0  0  0
   44.2662   54.5846   34.4743 O   0  0  0  0  0  0  0  0  0  0  0  0
   46.0752   53.2358   35.2401 C   0  0  1  0  0  0  0  0  0  0  0  0
   47.2443   53.0694   36.0530 O   0  0  0  0  0  0  0  0  0  0  0  0
   44.7411   52.5537   35.6748 C   0  0  1  0  0  0  0  0  0  0  0  0
   44.5585   52.2690   37.0410 O   0  0  0  0  0  0  0  0  0  0  0  0
   43.6826   53.3864   34.9448 C   0  0  2  0  0  0  0  0  0  0  0  0
   46.7508   59.8890   30.5932 O   0  0  0  0  0  0  0  0  0  0  0  0
   43.1091   52.8191   29.5749 N   0  0  0  0  0  0  0  0  0  0  0  0
   43.8986   53.7552   30.2526 C   0  0  0  0  0  0  0  0  0  0  0  0
   43.9323   53.7630   31.7134 N   0  0  0  0  0  0  0  0  0  0  0  0
   43.1933   52.8539   32.4224 C   0  0  0  0  0  0  0  0  0  0  0  0
   42.4000   51.9165   31.7325 C   0  0  0  0  0  0  0  0  0  0  0  0
   42.3663   51.9098   30.2767 C   0  0  0  0  0  0  0  0  0  0  0  0
   41.5435   50.9361   29.5582 N   0  0  0  0  0  0  0  0  0  0  0  0
   41.7342   51.0914   32.7107 N   0  0  0  0  0  0  0  0  0  0  0  0
   42.1294   51.5394   33.9932 C   0  0  0  0  0  0  0  0  0  0  0  0
   43.0341   52.6287   33.8357 N   0  0  0  0  0  0  0  0  0  0  0  0
  2  1  1  1  0  0  0
  2  3  1  0  0  0  0
  2  5  1  0  0  0  0
  3  4  1  0  0  0  0
  3 17  1  0  0  0  0
  5  6  1  0  0  0  0
  7  6  1  6  0  0  0
  7  8  1  0  0  0  0
  7  9  1  0  0  0  0
 10  9  1  6  0  0  0
 10 11  1  0  0  0  0
 10 12  1  0  0  0  0
 11 16  1  0  0  0  0
 12 13  1  1  0  0  0
 12 14  1  0  0  0  0
 14 15  1  1  0  0  0
 14 16  1  0  0  0  0
 16 27  1  6  0  0  0
 18 19  2  0  0  0  0
 18 23  1  0  0  0  0
 19 20  1  0  0  0  0
 20 21  2  0  0  0  0
 21 22  1  0  0  0  0
 21 27  1  0  0  0  0
 22 23  2  0  0  0  0
 22 25  1  0  0  0  0
 23 24  1  0  0  0  0
 25 26  2  0  0  0  0
 26 27  1  0  0  0  0
M  END
>  <CHROM.1>
-15.27216936,-61.39970720,-177.05974930,-175.91254393,-166.73138990,165.44259420
13.49099619,45.42377390,54.84016428,33.11283848,0.53446799,-0.79111728,-0.89793476

>  <Name>
ligand

>  <RI>
0

>  <Rbt.Current_Directory>
/home/itssahil/PROJECTS/Mol_Feturizer/New_Systems/rnas/3GX2

>  <Rbt.Executable>
rbdock ($Id: //depot/dev/client3/rdock/2013.1/src/exe/rbdock.cxx#4 $)

>  <Rbt.Library>
libRbt.so (2013.1, Build901 2013/11/27)

>  <Rbt.Parameter_File>
/export/apps/rDock/src/rDock_2013.1_src/data/scripts/dock_solv.prm

>  <Rbt.Receptor>
prm/pocket_docking_8.prm

>  <SCORE>
-11.8158

>  <SCORE.INTER>
-9.5391

>  <SCORE.INTER.CONST>
1

>  <SCORE.INTER.POLAR>
0

>  <SCORE.INTER.ROT>
7

>  <SCORE.INTER.SOLV>
18.805

>  <SCORE.INTER.VDW>
-20.8944

>  <SCORE.INTER.norm>
-0.3533

>  <SCORE.INTRA>
-2.27666

>  <SCORE.INTRA.DIHEDRAL>
-7.90878

>  <SCORE.INTRA.DIHEDRAL.0>
13.9704

>  <SCORE.INTRA.POLAR>
0

>  <SCORE.INTRA.POLAR.0>
0

>  <SCORE.INTRA.REPUL>
0

>  <SCORE.INTRA.REPUL.0>
0

>  <SCORE.INTRA.SOLV>
2.11167

>  <SCORE.INTRA.SOLV.lig_0>
-70.9758

>  <SCORE.INTRA.VDW>
0.621891

>  <SCORE.INTRA.VDW.0>
-2.70686

>  <SCORE.INTRA.norm>
-0.0843209

>  <SCORE.RESTR>
0

>  <SCORE.RESTR.CAVITY>
0

>  <SCORE.RESTR.norm>
0

>  <SCORE.SYSTEM>
0

>  <SCORE.SYSTEM.CONST>
0

>  <SCORE.SYSTEM.DIHEDRAL>
0

>  <SCORE.SYSTEM.SOLV>
0

>  <SCORE.SYSTEM.norm>
0

>  <SCORE.heavy>
27

>  <SCORE.norm>
-0.437621

>  <RMSD>
6.625

$$$$
ligand
 OpenBabel11021811473D
libRbt.so/2013.1/901 2013/11/27
 27 29  0  0  0  0  0  0  0  0999 V2000
   49.0969   55.0205   34.7834 N   0  0  0  0  0  0  0  0  0  0  0  0
   47.6657   54.8189   34.5684 C   0  0  2  0  0  0  0  0  0  0  0  0
   47.2406   53.3492   34.5478 C   0  0  0  0  0  0  0  0  0  0  0  0
   48.0796   52.5144   34.4696 O   0  0  0  0  0  0  0  0  0  0  0  0
   47.0697   55.6340   33.4015 C   0  0  0  0  0  0  0  0  0  0  0  0
   47.0974   57.1866   33.4620 C   0  0  0  0  0  0  0  0  0  0  0  0
   48.4572   57.8501   33.1170 C   0  0  2  0  0  0  0  0  0  0  0  0
   49.4319   57.7492   34.2033 N   0  0  0  0  0  0  0  0  0  0  0  0
   48.2837   59.3055   32.5830 C   0  0  0  0  0  0  0  0  0  0  0  0
   47.6761   59.5104   31.1543 C   0  0  1  0  0  0  0  0  0  0  0  0
   48.5311   59.3298   29.9866 O   0  0  0  0  0  0  0  0  0  0  0  0
   46.3859   58.7109   30.8193 C   0  0  1  0  0  0  0  0  0  0  0  0
   45.1899   59.0386   31.5385 O   0  0  0  0  0  0  0  0  0  0  0  0
   46.3430   58.6389   29.2614 C   0  0  1  0  0  0  0  0  0  0  0  0
   45.3551   59.3850   28.5918 O   0  0  0  0  0  0  0  0  0  0  0  0
   47.8113   58.8395   28.8734 C   0  0  2  0  0  0  0  0  0  0  0  0
   45.9868   53.0059   35.0917 O   0  0  0  0  0  0  0  0  0  0  0  0
   50.5104   54.2671   30.0117 N   0  0  0  0  0  0  0  0  0  0  0  0
   50.0871   55.2523   30.9112 C   0  0  0  0  0  0  0  0  0  0  0  0
   49.3674   56.4271   30.4242 N   0  0  0  0  0  0  0  0  0  0  0  0
   49.1040   56.5660   29.0876 C   0  0  0  0  0  0  0  0  0  0  0  0
   49.5351   55.5708   28.1889 C   0  0  0  0  0  0  0  0  0  0  0  0
   50.2530   54.4007   28.6749 C   0  0  0  0  0  0  0  0  0  0  0  0
   50.7008   53.3652   27.7429 N   0  0  0  0  0  0  0  0  0  0  0  0
   49.1322   55.9654   26.8612 N   0  0  0  0  0  0  0  0  0  0  0  0
   48.4585   57.2050   26.9658 C   0  0  0  0  0  0  0  0  0  0  0  0
   48.4290   57.5925   28.3365 N   0  0  0  0  0  0  0  0  0  0  0  0
  2  1  1  6  0  0  0
  2  3  1  0  0  0  0
  2  5  1  0  0  0  0
  3  4  1  0  0  0  0
  3 17  1  0  0  0  0
  5  6  1  0  0  0  0
  7  6  1  1  0  0  0
  7  8  1  0  0  0  0
  7  9  1  0  0  0  0
 10  9  1  1  0  0  0
 10 11  1  0  0  0  0
 10 12  1  0  0  0  0
 11 16  1  0  0  0  0
 12 13  1  6  0  0  0
 12 14  1  0  0  0  0
 14 15  1  6  0  0  0
 14 16  1  0  0  0  0
 16 27  1  1  0  0  0
 18 19  2  0  0  0  0
 18 23  1  0  0  0  0
 19 20  1  0  0  0  0
 20 21  2  0  0  0  0
 21 22  1  0  0  0  0
 21 27  1  0  0  0  0
 22 23  2  0  0  0  0
 22 25  1  0  0  0  0
 23 24  1  0  0  0  0
 25 26  2  0  0  0  0
 26 27  1  0  0  0  0
M  END
>  <CHROM.1>
-12.81422443,-62.48154028,78.39410862,-76.25895723,-71.24793506,-79.55860148
33.45342199,48.13404074,56.54430427,31.09611913,-1.69388429,1.01471344,-0.95996175

>  <Name>
ligand

>  <RI>
0

>  <Rbt.Current_Directory>
/home/itssahil/PROJECTS/Mol_Feturizer/New_Systems/rnas/3GX2

>  <Rbt.Executable>
rbdock ($Id: //depot/dev/client3/rdock/2013.1/src/exe/rbdock.cxx#4 $)

>  <Rbt.Library>
libRbt.so (2013.1, Build901 2013/11/27)

>  <Rbt.Parameter_File>
/export/apps/rDock/src/rDock_2013.1_src/data/scripts/dock_solv.prm

>  <Rbt.Receptor>
prm/pocket_docking_2.prm

>  <SCORE>
-7.15571

>  <SCORE.INTER>
-7.23461

>  <SCORE.INTER.CONST>
1

>  <SCORE.INTER.POLAR>
0

>  <SCORE.INTER.ROT>
7

>  <SCORE.INTER.SOLV>
17.7369

>  <SCORE.INTER.VDW>
-19.002

>  <SCORE.INTER.norm>
-0.267948

>  <SCORE.INTRA>
-2.0657

>  <SCORE.INTRA.DIHEDRAL>
-5.31547

>  <SCORE.INTRA.DIHEDRAL.0>
13.9704

>  <SCORE.INTRA.POLAR>
0

>  <SCORE.INTRA.POLAR.0>
0

>  <SCORE.INTRA.REPUL>
0

>  <SCORE.INTRA.REPUL.0>
0

>  <SCORE.INTRA.SOLV>
3.80592

>  <SCORE.INTRA.SOLV.lig_0>
-70.9758

>  <SCORE.INTRA.VDW>
-1.31093

>  <SCORE.INTRA.VDW.0>
-2.70686

>  <SCORE.INTRA.norm>
-0.0765073

>  <SCORE.RESTR>
2.1446

>  <SCORE.RESTR.CAVITY>
2.1446

>  <SCORE.RESTR.norm>
0.0794295

>  <SCORE.SYSTEM>
0

>  <SCORE.SYSTEM.CONST>
0

>  <SCORE.SYSTEM.DIHEDRAL>
0

>  <SCORE.SYSTEM.SOLV>
0

>  <SCORE.SYSTEM.norm>
0

>  <SCORE.heavy>
27

>  <SCORE.norm>
-0.265026

>  <RMSD>
6.629

$$$$
ligand
 OpenBabel11021811473D
libRbt.so/2013.1/901 2013/11/27
 27 29  0  0  0  0  0  0  0  0999 V2000
   50.5358   53.2503   30.4968 N   0  0  0  0  0  0  0  0  0  0  0  0
   50.2073   53.0929   29.0817 C   0  0  2  0  0  0  0  0  0  0  0  0
   51.1389   53.8564   28.1381 C   0  0  0  0  0  0  0  0  0  0  0  0
   51.5483   54.9170   28.4766 O   0  0  0  0  0  0  0  0  0  0  0  0
   48.7148   53.2887   28.7424 C   0  0  0  0  0  0  0  0  0  0  0  0
   47.6556   52.3523   29.3876 C   0  0  0  0  0  0  0  0  0  0  0  0
   46.1735   52.7422   29.1432 C   0  0  2  0  0  0  0  0  0  0  0  0
   45.8317   52.8188   27.7229 N   0  0  0  0  0  0  0  0  0  0  0  0
   45.7604   54.0165   29.9423 C   0  0  0  0  0  0  0  0  0  0  0  0
   44.2686   54.4887   29.8780 C   0  0  1  0  0  0  0  0  0  0  0  0
   43.2328   53.6514   30.4722 O   0  0  0  0  0  0  0  0  0  0  0  0
   43.9620   55.9189   30.4037 C   0  0  1  0  0  0  0  0  0  0  0  0
   44.5016   57.0296   29.6754 O   0  0  0  0  0  0  0  0  0  0  0  0
   42.4431   55.9065   30.7597 C   0  0  1  0  0  0  0  0  0  0  0  0
   41.5670   56.6487   29.9459 O   0  0  0  0  0  0  0  0  0  0  0  0
   42.1611   54.4176   30.9846 C   0  0  2  0  0  0  0  0  0  0  0  0
   51.8553   53.1276   27.1679 O   0  0  0  0  0  0  0  0  0  0  0  0
   44.0456   54.6347   36.0727 N   0  0  0  0  0  0  0  0  0  0  0  0
   44.6752   55.0967   34.9112 C   0  0  0  0  0  0  0  0  0  0  0  0
   44.0154   54.9539   33.6153 N   0  0  0  0  0  0  0  0  0  0  0  0
   42.7795   54.3698   33.5343 C   0  0  0  0  0  0  0  0  0  0  0  0
   42.1538   53.9059   34.7079 C   0  0  0  0  0  0  0  0  0  0  0  0
   42.8122   54.0478   35.9989 C   0  0  0  0  0  0  0  0  0  0  0  0
   42.1633   53.5674   37.2193 N   0  0  0  0  0  0  0  0  0  0  0  0
   40.8789   53.3408   34.3388 N   0  0  0  0  0  0  0  0  0  0  0  0
   40.7423   53.4648   32.9361 C   0  0  0  0  0  0  0  0  0  0  0  0
   41.9079   54.1012   32.4200 N   0  0  0  0  0  0  0  0  0  0  0  0
  2  1  1  1  0  0  0
  2  3  1  0  0  0  0
  2  5  1  0  0  0  0
  3  4  1  0  0  0  0
  3 17  1  0  0  0  0
  5  6  1  0  0  0  0
  7  6  1  6  0  0  0
  7  8  1  0  0  0  0
  7  9  1  0  0  0  0
 10  9  1  1  0  0  0
 10 11  1  0  0  0  0
 10 12  1  0  0  0  0
 11 16  1  0  0  0  0
 12 13  1  6  0  0  0
 12 14  1  0  0  0  0
 14 15  1  6  0  0  0
 14 16  1  0  0  0  0
 16 27  1  1  0  0  0
 18 19  2  0  0  0  0
 18 23  1  0  0  0  0
 19 20  1  0  0  0  0
 20 21  2  0  0  0  0
 21 22  1  0  0  0  0
 21 27  1  0  0  0  0
 22 23  2  0  0  0  0
 22 25  1  0  0  0  0
 23 24  1  0  0  0  0
 25 26  2  0  0  0  0
 26 27  1  0  0  0  0
M  END
>  <CHROM.1>
-36.32490937,-60.59234423,171.98584539,57.62063254,-176.07031288,66.61526292
66.57358269,45.19417609,54.20639507,31.22711906,-0.58432939,-0.21594080,1.73820415

>  <Name>
ligand

>  <RI>
0

>  <Rbt.Current_Directory>
/home/itssahil/PROJECTS/Mol_Feturizer/New_Systems/rnas/3GX2

>  <Rbt.Executable>
rbdock ($Id: //depot/dev/client3/rdock/2013.1/src/exe/rbdock.cxx#4 $)

>  <Rbt.Library>
libRbt.so (2013.1, Build901 2013/11/27)

>  <Rbt.Parameter_File>
/export/apps/rDock/src/rDock_2013.1_src/data/scripts/dock_solv.prm

>  <Rbt.Receptor>
prm/pocket_docking_7.prm

>  <SCORE>
-7.82362

>  <SCORE.INTER>
-3.77182

>  <SCORE.INTER.CONST>
1

>  <SCORE.INTER.POLAR>
0

>  <SCORE.INTER.ROT>
7

>  <SCORE.INTER.SOLV>
17.1128

>  <SCORE.INTER.VDW>
-16.4855

>  <SCORE.INTER.norm>
-0.139697

>  <SCORE.INTRA>
-4.0518

>  <SCORE.INTRA.DIHEDRAL>
-9.04776

>  <SCORE.INTRA.DIHEDRAL.0>
13.9704

>  <SCORE.INTRA.POLAR>
0

>  <SCORE.INTRA.POLAR.0>
0

>  <SCORE.INTRA.REPUL>
0

>  <SCORE.INTRA.REPUL.0>
0

>  <SCORE.INTRA.SOLV>
0.862075

>  <SCORE.INTRA.SOLV.lig_0>
-70.9758

>  <SCORE.INTRA.VDW>
0.0410389

>  <SCORE.INTRA.VDW.0>
-2.70686

>  <SCORE.INTRA.norm>
-0.150067

>  <SCORE.RESTR>
0

>  <SCORE.RESTR.CAVITY>
0

>  <SCORE.RESTR.norm>
0

>  <SCORE.SYSTEM>
0

>  <SCORE.SYSTEM.CONST>
0

>  <SCORE.SYSTEM.DIHEDRAL>
0

>  <SCORE.SYSTEM.SOLV>
0

>  <SCORE.SYSTEM.norm>
0

>  <SCORE.heavy>
27

>  <SCORE.norm>
-0.289764

>  <RMSD>
6.635

$$$$
ligand
 OpenBabel11021811473D
libRbt.so/2013.1/901 2013/11/27
 27 29  0  0  0  0  0  0  0  0999 V2000
   48.8940   54.7111   32.4973 N   0  0  0  0  0  0  0  0  0  0  0  0
   49.4817   55.5790   33.5153 C   0  0  2  0  0  0  0  0  0  0  0  0
   48.9523   55.3271   34.9287 C   0  0  0  0  0  0  0  0  0  0  0  0
   47.7792   55.3079   35.1027 O   0  0  0  0  0  0  0  0  0  0  0  0
   49.5144   57.0762   33.1431 C   0  0  0  0  0  0  0  0  0  0  0  0
   48.1778   57.8363   32.9171 C   0  0  0  0  0  0  0  0  0  0  0  0
   48.3047   59.2507   32.2912 C   0  0  2  0  0  0  0  0  0  0  0  0
   49.2905   60.0889   32.9733 N   0  0  0  0  0  0  0  0  0  0  0  0
   46.9190   59.9473   32.1243 C   0  0  0  0  0  0  0  0  0  0  0  0
   45.9068   59.3595   31.0839 C   0  0  1  0  0  0  0  0  0  0  0  0
   46.1783   59.5211   29.6600 O   0  0  0  0  0  0  0  0  0  0  0  0
   45.5313   57.8594   31.2405 C   0  0  1  0  0  0  0  0  0  0  0  0
   44.7895   57.4733   32.4049 O   0  0  0  0  0  0  0  0  0  0  0  0
   45.0258   57.4156   29.8328 C   0  0  1  0  0  0  0  0  0  0  0  0
   43.6540   57.1414   29.6789 O   0  0  0  0  0  0  0  0  0  0  0  0
   45.6854   58.4362   28.9000 C   0  0  2  0  0  0  0  0  0  0  0  0
   49.7886   54.6661   35.8503 O   0  0  0  0  0  0  0  0  0  0  0  0
   47.1966   54.2235   25.8248 N   0  0  0  0  0  0  0  0  0  0  0  0
   45.9729   54.4039   26.4796 C   0  0  0  0  0  0  0  0  0  0  0  0
   45.7375   55.6093   27.2712 N   0  0  0  0  0  0  0  0  0  0  0  0
   46.7124   56.5655   27.3730 C   0  0  0  0  0  0  0  0  0  0  0  0
   47.9418   56.3752   26.7124 C   0  0  0  0  0  0  0  0  0  0  0  0
   48.1760   55.1733   25.9242 C   0  0  0  0  0  0  0  0  0  0  0  0
   49.4522   54.9742   25.2364 N   0  0  0  0  0  0  0  0  0  0  0  0
   48.7760   57.5198   26.9862 N   0  0  0  0  0  0  0  0  0  0  0  0
   48.0426   58.3987   27.8175 C   0  0  0  0  0  0  0  0  0  0  0  0
   46.7617   57.8265   28.0665 N   0  0  0  0  0  0  0  0  0  0  0  0
  2  1  1  6  0  0  0
  2  3  1  0  0  0  0
  2  5  1  0  0  0  0
  3  4  1  0  0  0  0
  3 17  1  0  0  0  0
  5  6  1  0  0  0  0
  7  6  1  1  0  0  0
  7  8  1  0  0  0  0
  7  9  1  0  0  0  0
 10  9  1  1  0  0  0
 10 11  1  0  0  0  0
 10 12  1  0  0  0  0
 11 16  1  0  0  0  0
 12 13  1  1  0  0  0
 12 14  1  0  0  0  0
 14 15  1  1  0  0  0
 14 16  1  0  0  0  0
 16 27  1  1  0  0  0
 18 19  2  0  0  0  0
 18 23  1  0  0  0  0
 19 20  1  0  0  0  0
 20 21  2  0  0  0  0
 21 22  1  0  0  0  0
 21 27  1  0  0  0  0
 22 23  2  0  0  0  0
 22 25  1  0  0  0  0
 23 24  1  0  0  0  0
 25 26  2  0  0  0  0
 26 27  1  0  0  0  0
M  END
>  <CHROM.1>
-51.34090865,62.83407866,-168.92494256,-49.75538214,-67.81265221,-71.47403127
166.96326252,47.33924650,56.97093119,30.34171560,-1.26595632,0.89498854,-1.88858129

>  <Name>
ligand

>  <RI>
0

>  <Rbt.Current_Directory>
/home/itssahil/PROJECTS/Mol_Feturizer/New_Systems/rnas/3GX2

>  <Rbt.Executable>
rbdock ($Id: //depot/dev/client3/rdock/2013.1/src/exe/rbdock.cxx#4 $)

>  <Rbt.Library>
libRbt.so (2013.1, Build901 2013/11/27)

>  <Rbt.Parameter_File>
/export/apps/rDock/src/rDock_2013.1_src/data/scripts/dock_solv.prm

>  <Rbt.Receptor>
prm/pocket_docking_5.prm

>  <SCORE>
-13.8442

>  <SCORE.INTER>
-10.3656

>  <SCORE.INTER.CONST>
1

>  <SCORE.INTER.POLAR>
0

>  <SCORE.INTER.ROT>
7

>  <SCORE.INTER.SOLV>
17.6017

>  <SCORE.INTER.VDW>
-21.0443

>  <SCORE.INTER.norm>
-0.383909

>  <SCORE.INTRA>
-3.47869

>  <SCORE.INTRA.DIHEDRAL>
-8.05028

>  <SCORE.INTRA.DIHEDRAL.0>
13.9704

>  <SCORE.INTRA.POLAR>
0

>  <SCORE.INTRA.POLAR.0>
0

>  <SCORE.INTRA.REPUL>
0

>  <SCORE.INTRA.REPUL.0>
0

>  <SCORE.INTRA.SOLV>
0.580461

>  <SCORE.INTRA.SOLV.lig_0>
-70.9758

>  <SCORE.INTRA.VDW>
0.256219

>  <SCORE.INTRA.VDW.0>
-2.70686

>  <SCORE.INTRA.norm>
-0.12884

>  <SCORE.RESTR>
0

>  <SCORE.RESTR.CAVITY>
0

>  <SCORE.RESTR.norm>
0

>  <SCORE.SYSTEM>
0

>  <SCORE.SYSTEM.CONST>
0

>  <SCORE.SYSTEM.DIHEDRAL>
0

>  <SCORE.SYSTEM.SOLV>
0

>  <SCORE.SYSTEM.norm>
0

>  <SCORE.heavy>
27

>  <SCORE.norm>
-0.51275

>  <RMSD>
6.643

$$$$
ligand
 OpenBabel11021811473D
libRbt.so/2013.1/901 2013/11/27
 27 29  0  0  0  0  0  0  0  0999 V2000
   46.0791   53.0477   37.0282 N   0  0  0  0  0  0  0  0  0  0  0  0
   46.3854   53.2001   35.6076 C   0  0  2  0  0  0  0  0  0  0  0  0
   47.8803   53.1516   35.2848 C   0  0  0  0  0  0  0  0  0  0  0  0
   48.2456   52.4823   34.3763 O   0  0  0  0  0  0  0  0  0  0  0  0
   45.6580   54.3715   34.9150 C   0  0  0  0  0  0  0  0  0  0  0  0
   45.7890   54.5494   33.3768 C   0  0  0  0  0  0  0  0  0  0  0  0
   45.1300   55.8249   32.7875 C   0  0  2  0  0  0  0  0  0  0  0  0
   45.1223   55.8379   31.3247 N   0  0  0  0  0  0  0  0  0  0  0  0
   45.7151   57.1307   33.4085 C   0  0  0  0  0  0  0  0  0  0  0  0
   47.2459   57.4167   33.2435 C   0  0  1  0  0  0  0  0  0  0  0  0
   48.1913   56.3125   33.3631 O   0  0  0  0  0  0  0  0  0  0  0  0
   47.6846   58.1667   31.9547 C   0  0  1  0  0  0  0  0  0  0  0  0
   47.2607   59.5268   31.7949 O   0  0  0  0  0  0  0  0  0  0  0  0
   49.1923   57.8114   31.7685 C   0  0  1  0  0  0  0  0  0  0  0  0
   50.1426   58.8272   31.9830 O   0  0  0  0  0  0  0  0  0  0  0  0
   49.3276   56.4965   32.5428 C   0  0  2  0  0  0  0  0  0  0  0  0
   48.6945   54.2178   35.7161 O   0  0  0  0  0  0  0  0  0  0  0  0
   51.4221   54.7057   27.8637 N   0  0  0  0  0  0  0  0  0  0  0  0
   51.4601   56.0102   28.3696 C   0  0  0  0  0  0  0  0  0  0  0  0
   50.8384   56.3141   29.6565 N   0  0  0  0  0  0  0  0  0  0  0  0
   50.2191   55.3238   30.3712 C   0  0  0  0  0  0  0  0  0  0  0  0
   50.1838   54.0141   29.8540 C   0  0  0  0  0  0  0  0  0  0  0  0
   50.8028   53.7120   28.5710 C   0  0  0  0  0  0  0  0  0  0  0  0
   50.7680   52.3518   28.0326 N   0  0  0  0  0  0  0  0  0  0  0  0
   49.4775   53.1821   30.7973 N   0  0  0  0  0  0  0  0  0  0  0  0
   49.0857   53.9991   31.8838 C   0  0  0  0  0  0  0  0  0  0  0  0
   49.5373   55.3282   31.6395 N   0  0  0  0  0  0  0  0  0  0  0  0
  2  1  1  1  0  0  0
  2  3  1  0  0  0  0
  2  5  1  0  0  0  0
  3  4  1  0  0  0  0
  3 17  1  0  0  0  0
  5  6  1  0  0  0  0
  7  6  1  6  0  0  0
  7  8  1  0  0  0  0
  7  9  1  0  0  0  0
 10  9  1  6  0  0  0
 10 11  1  0  0  0  0
 10 12  1  0  0  0  0
 11 16  1  0  0  0  0
 12 13  1  1  0  0  0
 12 14  1  0  0  0  0
 14 15  1  1  0  0  0
 14 16  1  0  0  0  0
 16 27  1  6  0  0  0
 18 19  2  0  0  0  0
 18 23  1  0  0  0  0
 19 20  1  0  0  0  0
 20 21  2  0  0  0  0
 21 22  1  0  0  0  0
 21 27  1  0  0  0  0
 22 23  2  0  0  0  0
 22 25  1  0  0  0  0
 23 24  1  0  0  0  0
 25 26  2  0  0  0  0
 26 27  1  0  0  0  0
M  END
>  <CHROM.1>
133.84518107,-173.85821583,-174.69797978,-171.83080466,60.12002958,-39.71133958
154.77985525,48.39374432,55.33942527,32.20614737,-2.79575515,0.89017283,-0.33195807

>  <Name>
ligand

>  <RI>
0

>  <Rbt.Current_Directory>
/home/itssahil/PROJECTS/Mol_Feturizer/New_Systems/rnas/3GX2

>  <Rbt.Executable>
rbdock ($Id: //depot/dev/client3/rdock/2013.1/src/exe/rbdock.cxx#4 $)

>  <Rbt.Library>
libRbt.so (2013.1, Build901 2013/11/27)

>  <Rbt.Parameter_File>
/export/apps/rDock/src/rDock_2013.1_src/data/scripts/dock_solv.prm

>  <Rbt.Receptor>
prm/pocket_docking_4.prm

>  <SCORE>
-12.6095

>  <SCORE.INTER>
-9.01505

>  <SCORE.INTER.CONST>
1

>  <SCORE.INTER.POLAR>
0

>  <SCORE.INTER.ROT>
7

>  <SCORE.INTER.SOLV>
14.2318

>  <SCORE.INTER.VDW>
-19.0206

>  <SCORE.INTER.norm>
-0.333891

>  <SCORE.INTRA>
-3.59449

>  <SCORE.INTRA.DIHEDRAL>
-7.14555

>  <SCORE.INTRA.DIHEDRAL.0>
13.9704

>  <SCORE.INTRA.POLAR>
0

>  <SCORE.INTRA.POLAR.0>
0

>  <SCORE.INTRA.REPUL>
0

>  <SCORE.INTRA.REPUL.0>
0

>  <SCORE.INTRA.SOLV>
1.65788

>  <SCORE.INTRA.SOLV.lig_0>
-70.9758

>  <SCORE.INTRA.VDW>
-0.850659

>  <SCORE.INTRA.VDW.0>
-2.70686

>  <SCORE.INTRA.norm>
-0.133129

>  <SCORE.RESTR>
0

>  <SCORE.RESTR.CAVITY>
0

>  <SCORE.RESTR.norm>
0

>  <SCORE.SYSTEM>
0

>  <SCORE.SYSTEM.CONST>
0

>  <SCORE.SYSTEM.DIHEDRAL>
0

>  <SCORE.SYSTEM.SOLV>
0

>  <SCORE.SYSTEM.norm>
0

>  <SCORE.heavy>
27

>  <SCORE.norm>
-0.46702

>  <RMSD>
6.653

$$$$
ligand
 OpenBabel11021811473D
libRbt.so/2013.1/901 2013/11/27
 27 29  0  0  0  0  0  0  0  0999 V2000
   48.9414   54.6626   32.5534 N   0  0  0  0  0  0  0  0  0  0  0  0
   49.5289   55.5439   33.5599 C   0  0  2  0  0  0  0  0  0  0  0  0
   49.0117   55.2994   34.9791 C   0  0  0  0  0  0  0  0  0  0  0  0
   47.8404   55.2441   35.1569 O   0  0  0  0  0  0  0  0  0  0  0  0
   49.5463   57.0381   33.1749 C   0  0  0  0  0  0  0  0  0  0  0  0
   48.2016   57.7873   32.9612 C   0  0  0  0  0  0  0  0  0  0  0  0
   48.3056   59.1755   32.2753 C   0  0  2  0  0  0  0  0  0  0  0  0
   49.3173   60.0379   32.8857 N   0  0  0  0  0  0  0  0  0  0  0  0
   46.9150   59.8681   32.1338 C   0  0  0  0  0  0  0  0  0  0  0  0
   45.9059   59.3100   31.0743 C   0  0  1  0  0  0  0  0  0  0  0  0
   46.1945   59.4890   29.6559 O   0  0  0  0  0  0  0  0  0  0  0  0
   45.5081   57.8131   31.2045 C   0  0  1  0  0  0  0  0  0  0  0  0
   44.7488   57.4201   32.3551 O   0  0  0  0  0  0  0  0  0  0  0  0
   45.0114   57.3974   29.7851 C   0  0  1  0  0  0  0  0  0  0  0  0
   43.6376   57.1447   29.6130 O   0  0  0  0  0  0  0  0  0  0  0  0
   45.6948   58.4224   28.8746 C   0  0  2  0  0  0  0  0  0  0  0  0
   49.8719   54.6830   35.9095 O   0  0  0  0  0  0  0  0  0  0  0  0
   47.2118   54.1944   25.8233 N   0  0  0  0  0  0  0  0  0  0  0  0
   45.9887   54.3759   26.4790 C   0  0  0  0  0  0  0  0  0  0  0  0
   45.7515   55.5856   27.2635 N   0  0  0  0  0  0  0  0  0  0  0  0
   46.7241   56.5449   27.3576 C   0  0  0  0  0  0  0  0  0  0  0  0
   47.9529   56.3535   26.6962 C   0  0  0  0  0  0  0  0  0  0  0  0
   48.1889   55.1474   25.9152 C   0  0  0  0  0  0  0  0  0  0  0  0
   49.4645   54.9472   25.2266 N   0  0  0  0  0  0  0  0  0  0  0  0
   48.7846   57.5020   26.9615 N   0  0  0  0  0  0  0  0  0  0  0  0
   48.0503   58.3842   27.7885 C   0  0  0  0  0  0  0  0  0  0  0  0
   46.7713   57.8103   28.0432 N   0  0  0  0  0  0  0  0  0  0  0  0
  2  1  1  6  0  0  0
  2  3  1  0  0  0  0
  2  5  1  0  0  0  0
  3  4  1  0  0  0  0
  3 17  1  0  0  0  0
  5  6  1  0  0  0  0
  7  6  1  1  0  0  0
  7  8  1  0  0  0  0
  7  9  1  0  0  0  0
 10  9  1  1  0  0  0
 10 11  1  0  0  0  0
 10 12  1  0  0  0  0
 11 16  1  0  0  0  0
 12 13  1  1  0  0  0
 12 14  1  0  0  0  0
 14 15  1  1  0  0  0
 14 16  1  0  0  0  0
 16 27  1  1  0  0  0
 18 19  2  0  0  0  0
 18 23  1  0  0  0  0
 19 20  1  0  0  0  0
 20 21  2  0  0  0  0
 21 22  1  0  0  0  0
 21 27  1  0  0  0  0
 22 23  2  0  0  0  0
 22 25  1  0  0  0  0
 23 24  1  0  0  0  0
 25 26  2  0  0  0  0
 26 27  1  0  0  0  0
M  END
>  <CHROM.1>
-49.79539865,63.22588481,-166.80242437,-49.35254671,-72.60912972,-69.70966304
165.27872971,47.35537664,56.93815618,30.33729905,-1.25708022,0.87756912,-1.88086778

>  <Name>
ligand

>  <RI>
0

>  <Rbt.Current_Directory>
/home/itssahil/PROJECTS/Mol_Feturizer/New_Systems/rnas/3GX2

>  <Rbt.Executable>
rbdock ($Id: //depot/dev/client3/rdock/2013.1/src/exe/rbdock.cxx#4 $)

>  <Rbt.Library>
libRbt.so (2013.1, Build901 2013/11/27)

>  <Rbt.Parameter_File>
/export/apps/rDock/src/rDock_2013.1_src/data/scripts/dock_solv.prm

>  <Rbt.Receptor>
prm/pocket_docking_4.prm

>  <SCORE>
-13.9208

>  <SCORE.INTER>
-10.5269

>  <SCORE.INTER.CONST>
1

>  <SCORE.INTER.POLAR>
0

>  <SCORE.INTER.ROT>
7

>  <SCORE.INTER.SOLV>
17.4155

>  <SCORE.INTER.VDW>
-21.0898

>  <SCORE.INTER.norm>
-0.389887

>  <SCORE.INTRA>
-3.39391

>  <SCORE.INTRA.DIHEDRAL>
-7.61963

>  <SCORE.INTRA.DIHEDRAL.0>
13.9704

>  <SCORE.INTRA.POLAR>
0

>  <SCORE.INTRA.POLAR.0>
0

>  <SCORE.INTRA.REPUL>
0

>  <SCORE.INTRA.REPUL.0>
0

>  <SCORE.INTRA.SOLV>
0.575158

>  <SCORE.INTRA.SOLV.lig_0>
-70.9758

>  <SCORE.INTRA.VDW>
0.128322

>  <SCORE.INTRA.VDW.0>
-2.70686

>  <SCORE.INTRA.norm>
-0.1257

>  <SCORE.RESTR>
0

>  <SCORE.RESTR.CAVITY>
0

>  <SCORE.RESTR.norm>
0

>  <SCORE.SYSTEM>
0

>  <SCORE.SYSTEM.CONST>
0

>  <SCORE.SYSTEM.DIHEDRAL>
0

>  <SCORE.SYSTEM.SOLV>
0

>  <SCORE.SYSTEM.norm>
0

>  <SCORE.heavy>
27

>  <SCORE.norm>
-0.515587

>  <RMSD>
6.659

$$$$
ligand
 OpenBabel11021811473D
libRbt.so/2013.1/901 2013/11/27
 27 29  0  0  0  0  0  0  0  0999 V2000
   43.1582   53.0099   33.7629 N   0  0  0  0  0  0  0  0  0  0  0  0
   44.2162   54.0168   33.8062 C   0  0  2  0  0  0  0  0  0  0  0  0
   44.6836   54.3678   35.2202 C   0  0  0  0  0  0  0  0  0  0  0  0
   45.8235   54.6477   35.3905 O   0  0  0  0  0  0  0  0  0  0  0  0
   43.9552   55.2617   32.9325 C   0  0  0  0  0  0  0  0  0  0  0  0
   44.9703   56.4382   32.9569 C   0  0  0  0  0  0  0  0  0  0  0  0
   44.7197   57.5658   31.9204 C   0  0  2  0  0  0  0  0  0  0  0  0
   44.7919   57.0942   30.5375 N   0  0  0  0  0  0  0  0  0  0  0  0
   45.6089   58.8193   32.1873 C   0  0  0  0  0  0  0  0  0  0  0  0
   47.1361   58.6082   32.4619 C   0  0  1  0  0  0  0  0  0  0  0  0
   47.7569   57.3433   32.0853 O   0  0  0  0  0  0  0  0  0  0  0  0
   48.1041   59.6946   31.9153 C   0  0  1  0  0  0  0  0  0  0  0  0
   48.0295   61.0066   32.4881 O   0  0  0  0  0  0  0  0  0  0  0  0
   49.4909   58.9884   31.8059 C   0  0  1  0  0  0  0  0  0  0  0  0
   50.5014   59.3721   32.7073 O   0  0  0  0  0  0  0  0  0  0  0  0
   49.1093   57.5079   31.7090 C   0  0  2  0  0  0  0  0  0  0  0  0
   43.7256   54.8161   36.1514 O   0  0  0  0  0  0  0  0  0  0  0  0
   51.0062   53.3182   28.8218 N   0  0  0  0  0  0  0  0  0  0  0  0
   50.9494   53.4357   30.2153 C   0  0  0  0  0  0  0  0  0  0  0  0
   50.4029   54.6455   30.8258 N   0  0  0  0  0  0  0  0  0  0  0  0
   49.9437   55.6660   30.0366 C   0  0  0  0  0  0  0  0  0  0  0  0
   50.0062   55.5404   28.6350 C   0  0  0  0  0  0  0  0  0  0  0  0
   50.5517   54.3347   28.0273 C   0  0  0  0  0  0  0  0  0  0  0  0
   50.6166   54.2020   26.5714 N   0  0  0  0  0  0  0  0  0  0  0  0
   49.4646   56.7453   28.0556 N   0  0  0  0  0  0  0  0  0  0  0  0
   49.0782   57.5978   29.1166 C   0  0  0  0  0  0  0  0  0  0  0  0
   49.3650   56.9465   30.3509 N   0  0  0  0  0  0  0  0  0  0  0  0
  2  1  1  1  0  0  0
  2  3  1  0  0  0  0
  2  5  1  0  0  0  0
  3  4  1  0  0  0  0
  3 17  1  0  0  0  0
  5  6  1  0  0  0  0
  7  6  1  1  0  0  0
  7  8  1  0  0  0  0
  7  9  1  0  0  0  0
 10  9  1  6  0  0  0
 10 11  1  0  0  0  0
 10 12  1  0  0  0  0
 11 16  1  0  0  0  0
 12 13  1  1  0  0  0
 12 14  1  0  0  0  0
 14 15  1  1  0  0  0
 14 16  1  0  0  0  0
 16 27  1  6  0  0  0
 18 19  2  0  0  0  0
 18 23  1  0  0  0  0
 19 20  1  0  0  0  0
 20 21  2  0  0  0  0
 21 22  1  0  0  0  0
 21 27  1  0  0  0  0
 22 23  2  0  0  0  0
 22 25  1  0  0  0  0
 23 24  1  0  0  0  0
 25 26  2  0  0  0  0
 26 27  1  0  0  0  0
M  END
>  <CHROM.1>
146.40440314,176.59031376,172.71977560,-61.52840556,47.19582817,17.74856042
-99.33513200,47.61002215,56.37298916,31.60777579,3.03604228,0.70772420,0.23672078

>  <Name>
ligand

>  <RI>
0

>  <Rbt.Current_Directory>
/home/itssahil/PROJECTS/Mol_Feturizer/New_Systems/rnas/3GX2

>  <Rbt.Executable>
rbdock ($Id: //depot/dev/client3/rdock/2013.1/src/exe/rbdock.cxx#4 $)

>  <Rbt.Library>
libRbt.so (2013.1, Build901 2013/11/27)

>  <Rbt.Parameter_File>
/export/apps/rDock/src/rDock_2013.1_src/data/scripts/dock_solv.prm

>  <Rbt.Receptor>
prm/pocket_docking_6.prm

>  <SCORE>
-12.3475

>  <SCORE.INTER>
-11.7359

>  <SCORE.INTER.CONST>
1

>  <SCORE.INTER.POLAR>
0

>  <SCORE.INTER.ROT>
7

>  <SCORE.INTER.SOLV>
12.278

>  <SCORE.INTER.VDW>
-20.1832

>  <SCORE.INTER.norm>
-0.434661

>  <SCORE.INTRA>
-0.611661

>  <SCORE.INTRA.DIHEDRAL>
-3.78444

>  <SCORE.INTRA.DIHEDRAL.0>
13.9704

>  <SCORE.INTRA.POLAR>
0

>  <SCORE.INTRA.POLAR.0>
0

>  <SCORE.INTRA.REPUL>
0

>  <SCORE.INTRA.REPUL.0>
0

>  <SCORE.INTRA.SOLV>
1.0146

>  <SCORE.INTRA.SOLV.lig_0>
-70.9758

>  <SCORE.INTRA.VDW>
0.773258

>  <SCORE.INTRA.VDW.0>
-2.70686

>  <SCORE.INTRA.norm>
-0.0226541

>  <SCORE.RESTR>
0

>  <SCORE.RESTR.CAVITY>
0

>  <SCORE.RESTR.norm>
0

>  <SCORE.SYSTEM>
0

>  <SCORE.SYSTEM.CONST>
0

>  <SCORE.SYSTEM.DIHEDRAL>
0

>  <SCORE.SYSTEM.SOLV>
0

>  <SCORE.SYSTEM.norm>
0

>  <SCORE.heavy>
27

>  <SCORE.norm>
-0.457315

>  <RMSD>
6.659

$$$$
ligand
 OpenBabel11021811473D
libRbt.so/2013.1/901 2013/11/27
 27 29  0  0  0  0  0  0  0  0999 V2000
   46.6177   52.9764   35.4392 N   0  0  0  0  0  0  0  0  0  0  0  0
   47.9400   53.4209   35.0047 C   0  0  2  0  0  0  0  0  0  0  0  0
   48.6574   54.3191   36.0145 C   0  0  0  0  0  0  0  0  0  0  0  0
   48.2243   54.3973   37.1160 O   0  0  0  0  0  0  0  0  0  0  0  0
   47.9917   53.9736   33.5649 C   0  0  0  0  0  0  0  0  0  0  0  0
   47.3708   55.3648   33.2581 C   0  0  0  0  0  0  0  0  0  0  0  0
   45.8741   55.5320   33.6327 C   0  0  2  0  0  0  0  0  0  0  0  0
   45.0172   54.5163   33.0211 N   0  0  0  0  0  0  0  0  0  0  0  0
   45.3660   56.9872   33.3931 C   0  0  0  0  0  0  0  0  0  0  0  0
   45.4677   57.5867   31.9500 C   0  0  1  0  0  0  0  0  0  0  0  0
   46.7848   57.7999   31.3610 O   0  0  0  0  0  0  0  0  0  0  0  0
   44.6537   56.8730   30.8347 C   0  0  1  0  0  0  0  0  0  0  0  0
   43.2232   56.9208   30.9155 O   0  0  0  0  0  0  0  0  0  0  0  0
   45.3553   57.2703   29.4990 C   0  0  1  0  0  0  0  0  0  0  0  0
   44.6749   58.1423   28.6285 O   0  0  0  0  0  0  0  0  0  0  0  0
   46.7702   57.6376   29.9570 C   0  0  2  0  0  0  0  0  0  0  0  0
   50.0144   54.6273   35.7927 O   0  0  0  0  0  0  0  0  0  0  0  0
   47.8258   52.4100   28.9344 N   0  0  0  0  0  0  0  0  0  0  0  0
   46.6171   52.9651   29.3701 C   0  0  0  0  0  0  0  0  0  0  0  0
   46.5129   54.4049   29.5967 N   0  0  0  0  0  0  0  0  0  0  0  0
   47.5963   55.2143   29.3819 C   0  0  0  0  0  0  0  0  0  0  0  0
   48.8095   54.6472   28.9452 C   0  0  0  0  0  0  0  0  0  0  0  0
   48.9129   53.2122   28.7203 C   0  0  0  0  0  0  0  0  0  0  0  0
   50.1722   52.6214   28.2658 N   0  0  0  0  0  0  0  0  0  0  0  0
   49.7723   55.7119   28.8022 N   0  0  0  0  0  0  0  0  0  0  0  0
   49.1323   56.9225   29.1578 C   0  0  0  0  0  0  0  0  0  0  0  0
   47.7840   56.6355   29.5178 N   0  0  0  0  0  0  0  0  0  0  0  0
  2  1  1  1  0  0  0
  2  3  1  0  0  0  0
  2  5  1  0  0  0  0
  3  4  1  0  0  0  0
  3 17  1  0  0  0  0
  5  6  1  0  0  0  0
  7  6  1  6  0  0  0
  7  8  1  0  0  0  0
  7  9  1  0  0  0  0
 10  9  1  1  0  0  0
 10 11  1  0  0  0  0
 10 12  1  0  0  0  0
 11 16  1  0  0  0  0
 12 13  1  6  0  0  0
 12 14  1  0  0  0  0
 14 15  1  1  0  0  0
 14 16  1  0  0  0  0
 16 27  1  1  0  0  0
 18 19  2  0  0  0  0
 18 23  1  0  0  0  0
 19 20  1  0  0  0  0
 20 21  2  0  0  0  0
 21 22  1  0  0  0  0
 21 27  1  0  0  0  0
 22 23  2  0  0  0  0
 22 25  1  0  0  0  0
 23 24  1  0  0  0  0
 25 26  2  0  0  0  0
 26 27  1  0  0  0  0
M  END
>  <CHROM.1>
12.63312761,72.70719032,-56.56802891,-55.16984014,58.57693691,-64.68096865
89.23556784,47.12372065,55.33286437,31.56525459,-1.37621156,0.72792294,-1.44469068

>  <Name>
ligand

>  <RI>
0

>  <Rbt.Current_Directory>
/home/itssahil/PROJECTS/Mol_Feturizer/New_Systems/rnas/3GX2

>  <Rbt.Executable>
rbdock ($Id: //depot/dev/client3/rdock/2013.1/src/exe/rbdock.cxx#4 $)

>  <Rbt.Library>
libRbt.so (2013.1, Build901 2013/11/27)

>  <Rbt.Parameter_File>
/export/apps/rDock/src/rDock_2013.1_src/data/scripts/dock_solv.prm

>  <Rbt.Receptor>
prm/pocket_docking_3.prm

>  <SCORE>
-6.15811

>  <SCORE.INTER>
-3.21817

>  <SCORE.INTER.CONST>
1

>  <SCORE.INTER.POLAR>
0

>  <SCORE.INTER.ROT>
7

>  <SCORE.INTER.SOLV>
13.4498

>  <SCORE.INTER.VDW>
-14.8954

>  <SCORE.INTER.norm>
-0.119192

>  <SCORE.INTRA>
-2.94277

>  <SCORE.INTRA.DIHEDRAL>
-8.43067

>  <SCORE.INTRA.DIHEDRAL.0>
13.9704

>  <SCORE.INTRA.POLAR>
0

>  <SCORE.INTRA.POLAR.0>
0

>  <SCORE.INTRA.REPUL>
0

>  <SCORE.INTRA.REPUL.0>
0

>  <SCORE.INTRA.SOLV>
5.32162

>  <SCORE.INTRA.SOLV.lig_0>
-70.9758

>  <SCORE.INTRA.VDW>
-1.38825

>  <SCORE.INTRA.VDW.0>
-2.70686

>  <SCORE.INTRA.norm>
-0.108991

>  <SCORE.RESTR>
0.00283053

>  <SCORE.RESTR.CAVITY>
0.00283053

>  <SCORE.RESTR.norm>
0.000104834

>  <SCORE.SYSTEM>
0

>  <SCORE.SYSTEM.CONST>
0

>  <SCORE.SYSTEM.DIHEDRAL>
0

>  <SCORE.SYSTEM.SOLV>
0

>  <SCORE.SYSTEM.norm>
0

>  <SCORE.heavy>
27

>  <SCORE.norm>
-0.228078

>  <RMSD>
6.673

$$$$
ligand
 OpenBabel11021811473D
libRbt.so/2013.1/901 2013/11/27
 27 29  0  0  0  0  0  0  0  0999 V2000
   47.5780   51.9313   35.6732 N   0  0  0  0  0  0  0  0  0  0  0  0
   48.1229   53.2848   35.7525 C   0  0  2  0  0  0  0  0  0  0  0  0
   47.8379   53.9935   37.0783 C   0  0  0  0  0  0  0  0  0  0  0  0
   46.7600   53.8861   37.5616 O   0  0  0  0  0  0  0  0  0  0  0  0
   47.8298   54.1691   34.5224 C   0  0  0  0  0  0  0  0  0  0  0  0
   48.4065   55.6110   34.4636 C   0  0  0  0  0  0  0  0  0  0  0  0
   47.9851   56.4555   33.2317 C   0  0  2  0  0  0  0  0  0  0  0  0
   48.6369   56.0234   31.9953 N   0  0  0  0  0  0  0  0  0  0  0  0
   48.1215   57.9872   33.4931 C   0  0  0  0  0  0  0  0  0  0  0  0
   47.6515   58.9811   32.3778 C   0  0  1  0  0  0  0  0  0  0  0  0
   48.4523   59.1193   31.1667 O   0  0  0  0  0  0  0  0  0  0  0  0
   46.1934   58.8205   31.8640 C   0  0  1  0  0  0  0  0  0  0  0  0
   45.1265   59.1064   32.7778 O   0  0  0  0  0  0  0  0  0  0  0  0
   46.1834   59.4803   30.4503 C   0  0  1  0  0  0  0  0  0  0  0  0
   45.4870   60.6930   30.2914 O   0  0  0  0  0  0  0  0  0  0  0  0
   47.6568   59.4136   30.0361 C   0  0  2  0  0  0  0  0  0  0  0  0
   48.9267   54.3260   37.9088 O   0  0  0  0  0  0  0  0  0  0  0  0
   45.7915   55.0613   27.3779 N   0  0  0  0  0  0  0  0  0  0  0  0
   45.1892   55.7253   28.4527 C   0  0  0  0  0  0  0  0  0  0  0  0
   45.8392   56.8894   29.0505 N   0  0  0  0  0  0  0  0  0  0  0  0
   47.0377   57.3343   28.5598 C   0  0  0  0  0  0  0  0  0  0  0  0
   47.6380   56.6592   27.4792 C   0  0  0  0  0  0  0  0  0  0  0  0
   46.9900   55.4987   26.8844 C   0  0  0  0  0  0  0  0  0  0  0  0
   47.6116   54.7966   25.7610 N   0  0  0  0  0  0  0  0  0  0  0  0
   48.8776   57.3288   27.1694 N   0  0  0  0  0  0  0  0  0  0  0  0
   49.0211   58.4091   28.0716 C   0  0  0  0  0  0  0  0  0  0  0  0
   47.8911   58.4304   28.9391 N   0  0  0  0  0  0  0  0  0  0  0  0
  2  1  1  6  0  0  0
  2  3  1  0  0  0  0
  2  5  1  0  0  0  0
  3  4  1  0  0  0  0
  3 17  1  0  0  0  0
  5  6  1  0  0  0  0
  7  6  1  1  0  0  0
  7  8  1  0  0  0  0
  7  9  1  0  0  0  0
 10  9  1  6  0  0  0
 10 11  1  0  0  0  0
 10 12  1  0  0  0  0
 11 16  1  0  0  0  0
 12 13  1  1  0  0  0
 12 14  1  0  0  0  0
 14 15  1  1  0  0  0
 14 16  1  0  0  0  0
 16 27  1  6  0  0  0
 18 19  2  0  0  0  0
 18 23  1  0  0  0  0
 19 20  1  0  0  0  0
 20 21  2  0  0  0  0
 21 22  1  0  0  0  0
 21 27  1  0  0  0  0
 22 23  2  0  0  0  0
 22 25  1  0  0  0  0
 23 24  1  0  0  0  0
 25 26  2  0  0  0  0
 26 27  1  0  0  0  0
M  END
>  <CHROM.1>
-41.95115677,-177.53543245,-176.26513855,-72.77963383,-176.28405615,-72.51973477
102.99862193,47.35844891,56.65328999,31.55601313,-0.86145334,1.43698214,-1.89458527

>  <Name>
ligand

>  <RI>
0

>  <Rbt.Current_Directory>
/home/itssahil/PROJECTS/Mol_Feturizer/New_Systems/rnas/3GX2

>  <Rbt.Executable>
rbdock ($Id: //depot/dev/client3/rdock/2013.1/src/exe/rbdock.cxx#4 $)

>  <Rbt.Library>
libRbt.so (2013.1, Build901 2013/11/27)

>  <Rbt.Parameter_File>
/export/apps/rDock/src/rDock_2013.1_src/data/scripts/dock_solv.prm

>  <Rbt.Receptor>
prm/pocket_docking_7.prm

>  <SCORE>
-10.3155

>  <SCORE.INTER>
-7.09181

>  <SCORE.INTER.CONST>
1

>  <SCORE.INTER.POLAR>
0

>  <SCORE.INTER.ROT>
7

>  <SCORE.INTER.SOLV>
19.153

>  <SCORE.INTER.VDW>
-19.3789

>  <SCORE.INTER.norm>
-0.26266

>  <SCORE.INTRA>
-3.22368

>  <SCORE.INTRA.DIHEDRAL>
-8.31177

>  <SCORE.INTRA.DIHEDRAL.0>
13.9704

>  <SCORE.INTRA.POLAR>
0

>  <SCORE.INTRA.POLAR.0>
0

>  <SCORE.INTRA.REPUL>
0

>  <SCORE.INTRA.REPUL.0>
0

>  <SCORE.INTRA.SOLV>
1.96543

>  <SCORE.INTRA.SOLV.lig_0>
-70.9758

>  <SCORE.INTRA.VDW>
-0.0505108

>  <SCORE.INTRA.VDW.0>
-2.70686

>  <SCORE.INTRA.norm>
-0.119396

>  <SCORE.RESTR>
0

>  <SCORE.RESTR.CAVITY>
0

>  <SCORE.RESTR.norm>
0

>  <SCORE.SYSTEM>
0

>  <SCORE.SYSTEM.CONST>
0

>  <SCORE.SYSTEM.DIHEDRAL>
0

>  <SCORE.SYSTEM.SOLV>
0

>  <SCORE.SYSTEM.norm>
0

>  <SCORE.heavy>
27

>  <SCORE.norm>
-0.382055

>  <RMSD>
6.675

$$$$
ligand
 OpenBabel11021811473D
libRbt.so/2013.1/901 2013/11/27
 27 29  0  0  0  0  0  0  0  0999 V2000
   47.0257   54.0187   35.6556 N   0  0  0  0  0  0  0  0  0  0  0  0
   45.6093   54.3437   35.8085 C   0  0  2  0  0  0  0  0  0  0  0  0
   44.7957   53.2604   36.5196 C   0  0  0  0  0  0  0  0  0  0  0  0
   44.2158   53.5443   37.5146 O   0  0  0  0  0  0  0  0  0  0  0  0
   44.9269   54.8642   34.5261 C   0  0  0  0  0  0  0  0  0  0  0  0
   45.3807   56.2194   33.9157 C   0  0  0  0  0  0  0  0  0  0  0  0
   44.6874   56.6263   32.5882 C   0  0  2  0  0  0  0  0  0  0  0  0
   45.0232   55.7384   31.4752 N   0  0  0  0  0  0  0  0  0  0  0  0
   44.8969   58.1352   32.2528 C   0  0  0  0  0  0  0  0  0  0  0  0
   46.3545   58.7077   32.2603 C   0  0  1  0  0  0  0  0  0  0  0  0
   47.4798   57.7857   32.1569 O   0  0  0  0  0  0  0  0  0  0  0  0
   46.6736   59.8281   31.2313 C   0  0  1  0  0  0  0  0  0  0  0  0
   46.0162   61.0918   31.3925 O   0  0  0  0  0  0  0  0  0  0  0  0
   48.2234   59.7921   31.0557 C   0  0  1  0  0  0  0  0  0  0  0  0
   48.9731   60.8630   31.5772 O   0  0  0  0  0  0  0  0  0  0  0  0
   48.5785   58.3640   31.4814 C   0  0  2  0  0  0  0  0  0  0  0  0
   44.3605   52.1485   35.7712 O   0  0  0  0  0  0  0  0  0  0  0  0
   48.0657   57.3485   26.1717 N   0  0  0  0  0  0  0  0  0  0  0  0
   47.4071   58.3326   26.9178 C   0  0  0  0  0  0  0  0  0  0  0  0
   47.6690   58.4630   28.3493 N   0  0  0  0  0  0  0  0  0  0  0  0
   48.5603   57.6244   28.9638 C   0  0  0  0  0  0  0  0  0  0  0  0
   49.2174   56.6355   28.2059 C   0  0  0  0  0  0  0  0  0  0  0  0
   48.9553   56.5056   26.7794 C   0  0  0  0  0  0  0  0  0  0  0  0
   49.6377   55.4794   25.9902 N   0  0  0  0  0  0  0  0  0  0  0  0
   50.0877   55.9012   29.0916 N   0  0  0  0  0  0  0  0  0  0  0  0
   49.9485   56.4521   30.3872 C   0  0  0  0  0  0  0  0  0  0  0  0
   49.0087   57.5214   30.3283 N   0  0  0  0  0  0  0  0  0  0  0  0
  2  1  1  6  0  0  0
  2  3  1  0  0  0  0
  2  5  1  0  0  0  0
  3  4  1  0  0  0  0
  3 17  1  0  0  0  0
  5  6  1  0  0  0  0
  7  6  1  1  0  0  0
  7  8  1  0  0  0  0
  7  9  1  0  0  0  0
 10  9  1  6  0  0  0
 10 11  1  0  0  0  0
 10 12  1  0  0  0  0
 11 16  1  0  0  0  0
 12 13  1  1  0  0  0
 12 14  1  0  0  0  0
 14 15  1  1  0  0  0
 14 16  1  0  0  0  0
 16 27  1  6  0  0  0
 18 19  2  0  0  0  0
 18 23  1  0  0  0  0
 19 20  1  0  0  0  0
 20 21  2  0  0  0  0
 21 22  1  0  0  0  0
 21 27  1  0  0  0  0
 22 23  2  0  0  0  0
 22 25  1  0  0  0  0
 23 24  1  0  0  0  0
 25 26  2  0  0  0  0
 26 27  1  0  0  0  0
M  END
>  <CHROM.1>
121.57475806,-64.96958380,177.04629127,-66.38756646,51.68795525,19.12845823
91.67219390,47.04526328,56.86570451,31.53801911,-2.64419146,1.09239336,-0.08050531

>  <Name>
ligand

>  <RI>
0

>  <Rbt.Current_Directory>
/home/itssahil/PROJECTS/Mol_Feturizer/New_Systems/rnas/3GX2

>  <Rbt.Executable>
rbdock ($Id: //depot/dev/client3/rdock/2013.1/src/exe/rbdock.cxx#4 $)

>  <Rbt.Library>
libRbt.so (2013.1, Build901 2013/11/27)

>  <Rbt.Parameter_File>
/export/apps/rDock/src/rDock_2013.1_src/data/scripts/dock_solv.prm

>  <Rbt.Receptor>
prm/pocket_docking_6.prm

>  <SCORE>
-15.0713

>  <SCORE.INTER>
-13.5905

>  <SCORE.INTER.CONST>
1

>  <SCORE.INTER.POLAR>
0

>  <SCORE.INTER.ROT>
7

>  <SCORE.INTER.SOLV>
13.9954

>  <SCORE.INTER.VDW>
-21.9922

>  <SCORE.INTER.norm>
-0.503353

>  <SCORE.INTRA>
-1.48077

>  <SCORE.INTRA.DIHEDRAL>
-4.37039

>  <SCORE.INTRA.DIHEDRAL.0>
13.9704

>  <SCORE.INTRA.POLAR>
0

>  <SCORE.INTRA.POLAR.0>
0

>  <SCORE.INTRA.REPUL>
0

>  <SCORE.INTRA.REPUL.0>
0

>  <SCORE.INTRA.SOLV>
1.2115

>  <SCORE.INTRA.SOLV.lig_0>
-70.9758

>  <SCORE.INTRA.VDW>
0.0986766

>  <SCORE.INTRA.VDW.0>
-2.70686

>  <SCORE.INTRA.norm>
-0.0548433

>  <SCORE.RESTR>
0

>  <SCORE.RESTR.CAVITY>
0

>  <SCORE.RESTR.norm>
0

>  <SCORE.SYSTEM>
0

>  <SCORE.SYSTEM.CONST>
0

>  <SCORE.SYSTEM.DIHEDRAL>
0

>  <SCORE.SYSTEM.SOLV>
0

>  <SCORE.SYSTEM.norm>
0

>  <SCORE.heavy>
27

>  <SCORE.norm>
-0.558197

>  <RMSD>
6.676

$$$$
ligand
 OpenBabel11021811483D
libRbt.so/2013.1/901 2013/11/27
 27 29  0  0  0  0  0  0  0  0999 V2000
   42.9546   54.9561   29.7539 N   0  0  0  0  0  0  0  0  0  0  0  0
   43.1670   56.4007   29.8080 C   0  0  2  0  0  0  0  0  0  0  0  0
   43.7139   56.9982   28.5098 C   0  0  0  0  0  0  0  0  0  0  0  0
   43.1519   57.9249   28.0279 O   0  0  0  0  0  0  0  0  0  0  0  0
   43.9203   56.8935   31.0613 C   0  0  0  0  0  0  0  0  0  0  0  0
   45.4000   56.4710   31.2783 C   0  0  0  0  0  0  0  0  0  0  0  0
   46.0840   57.0413   32.5492 C   0  0  2  0  0  0  0  0  0  0  0  0
   47.5259   56.7960   32.5785 N   0  0  0  0  0  0  0  0  0  0  0  0
   45.3603   56.5963   33.8575 C   0  0  0  0  0  0  0  0  0  0  0  0
   45.4626   55.0963   34.2956 C   0  0  1  0  0  0  0  0  0  0  0  0
   46.7512   54.5703   34.7313 O   0  0  0  0  0  0  0  0  0  0  0  0
   44.4583   54.6116   35.3784 C   0  0  1  0  0  0  0  0  0  0  0  0
   43.0679   54.5712   35.0314 O   0  0  0  0  0  0  0  0  0  0  0  0
   45.1216   53.3517   36.0161 C   0  0  1  0  0  0  0  0  0  0  0  0
   44.5448   52.0953   35.7520 O   0  0  0  0  0  0  0  0  0  0  0  0
   46.6082   53.5619   35.7113 C   0  0  2  0  0  0  0  0  0  0  0  0
   45.0697   56.7830   28.1913 O   0  0  0  0  0  0  0  0  0  0  0  0
   46.5253   54.2726   41.0942 N   0  0  0  0  0  0  0  0  0  0  0  0
   45.4484   53.9463   40.2618 C   0  0  0  0  0  0  0  0  0  0  0  0
   45.6556   53.7938   38.8235 N   0  0  0  0  0  0  0  0  0  0  0  0
   46.9034   53.9678   38.2869 C   0  0  0  0  0  0  0  0  0  0  0  0
   47.9813   54.2979   39.1314 C   0  0  0  0  0  0  0  0  0  0  0  0
   47.7740   54.4505   40.5647 C   0  0  0  0  0  0  0  0  0  0  0  0
   48.8927   54.7925   41.4438 N   0  0  0  0  0  0  0  0  0  0  0  0
   49.1642   54.4225   38.3152 N   0  0  0  0  0  0  0  0  0  0  0  0
   48.7914   54.1682   36.9744 C   0  0  0  0  0  0  0  0  0  0  0  0
   47.3960   53.8827   36.9365 N   0  0  0  0  0  0  0  0  0  0  0  0
  2  1  1  6  0  0  0
  2  3  1  0  0  0  0
  2  5  1  0  0  0  0
  3  4  1  0  0  0  0
  3 17  1  0  0  0  0
  5  6  1  0  0  0  0
  7  6  1  6  0  0  0
  7  8  1  0  0  0  0
  7  9  1  0  0  0  0
 10  9  1  1  0  0  0
 10 11  1  0  0  0  0
 10 12  1  0  0  0  0
 11 16  1  0  0  0  0
 12 13  1  6  0  0  0
 12 14  1  0  0  0  0
 14 15  1  6  0  0  0
 14 16  1  0  0  0  0
 16 27  1  1  0  0  0
 18 19  2  0  0  0  0
 18 23  1  0  0  0  0
 19 20  1  0  0  0  0
 20 21  2  0  0  0  0
 21 22  1  0  0  0  0
 21 27  1  0  0  0  0
 22 23  2  0  0  0  0
 22 25  1  0  0  0  0
 23 24  1  0  0  0  0
 25 26  2  0  0  0  0
 26 27  1  0  0  0  0
M  END
>  <CHROM.1>
127.98711239,65.36437534,178.65468694,-170.27480740,70.29136846,67.88060807
124.77766228,45.75000502,55.08691821,34.82952707,1.90856451,-0.40549568,-1.17057208

>  <Name>
ligand

>  <RI>
0

>  <Rbt.Current_Directory>
/home/itssahil/PROJECTS/Mol_Feturizer/New_Systems/rnas/3GX2

>  <Rbt.Executable>
rbdock ($Id: //depot/dev/client3/rdock/2013.1/src/exe/rbdock.cxx#4 $)

>  <Rbt.Library>
libRbt.so (2013.1, Build901 2013/11/27)

>  <Rbt.Parameter_File>
/export/apps/rDock/src/rDock_2013.1_src/data/scripts/dock_solv.prm

>  <Rbt.Receptor>
prm/pocket_docking_8.prm

>  <SCORE>
-15.918

>  <SCORE.INTER>
-13.0101

>  <SCORE.INTER.CONST>
1

>  <SCORE.INTER.POLAR>
0

>  <SCORE.INTER.ROT>
7

>  <SCORE.INTER.SOLV>
17.5838

>  <SCORE.INTER.VDW>
-22.8014

>  <SCORE.INTER.norm>
-0.481856

>  <SCORE.INTRA>
-2.90786

>  <SCORE.INTRA.DIHEDRAL>
-8.04838

>  <SCORE.INTRA.DIHEDRAL.0>
13.9704

>  <SCORE.INTRA.POLAR>
0

>  <SCORE.INTRA.POLAR.0>
0

>  <SCORE.INTRA.REPUL>
0

>  <SCORE.INTRA.REPUL.0>
0

>  <SCORE.INTRA.SOLV>
0.832137

>  <SCORE.INTRA.SOLV.lig_0>
-70.9758

>  <SCORE.INTRA.VDW>
0.700259

>  <SCORE.INTRA.VDW.0>
-2.70686

>  <SCORE.INTRA.norm>
-0.107699

>  <SCORE.RESTR>
0

>  <SCORE.RESTR.CAVITY>
0

>  <SCORE.RESTR.norm>
0

>  <SCORE.SYSTEM>
0

>  <SCORE.SYSTEM.CONST>
0

>  <SCORE.SYSTEM.DIHEDRAL>
0

>  <SCORE.SYSTEM.SOLV>
0

>  <SCORE.SYSTEM.norm>
0

>  <SCORE.heavy>
27

>  <SCORE.norm>
-0.589555

>  <RMSD>
6.696

$$$$
ligand
 OpenBabel11021811473D
libRbt.so/2013.1/901 2013/11/27
 27 29  0  0  0  0  0  0  0  0999 V2000
   42.5730   52.6190   33.2964 N   0  0  0  0  0  0  0  0  0  0  0  0
   43.5653   53.2283   34.1790 C   0  0  2  0  0  0  0  0  0  0  0  0
   42.9747   53.8390   35.4515 C   0  0  0  0  0  0  0  0  0  0  0  0
   42.0600   53.2937   35.9738 O   0  0  0  0  0  0  0  0  0  0  0  0
   44.5669   54.1647   33.4711 C   0  0  0  0  0  0  0  0  0  0  0  0
   44.0329   55.3265   32.5877 C   0  0  0  0  0  0  0  0  0  0  0  0
   45.1058   56.3059   32.0419 C   0  0  2  0  0  0  0  0  0  0  0  0
   46.1572   55.6318   31.2802 N   0  0  0  0  0  0  0  0  0  0  0  0
   45.6629   57.2481   33.1533 C   0  0  0  0  0  0  0  0  0  0  0  0
   46.7277   58.3254   32.7559 C   0  0  1  0  0  0  0  0  0  0  0  0
   48.0334   57.8891   32.2744 O   0  0  0  0  0  0  0  0  0  0  0  0
   46.2808   59.4117   31.7381 C   0  0  1  0  0  0  0  0  0  0  0  0
   45.2735   60.3436   32.1530 O   0  0  0  0  0  0  0  0  0  0  0  0
   47.6026   59.9490   31.1071 C   0  0  1  0  0  0  0  0  0  0  0  0
   48.0093   61.2555   31.4364 O   0  0  0  0  0  0  0  0  0  0  0  0
   48.5797   58.7910   31.3331 C   0  0  2  0  0  0  0  0  0  0  0  0
   43.7829   54.7006   36.2198 O   0  0  0  0  0  0  0  0  0  0  0  0
   50.6155   54.3123   29.0344 N   0  0  0  0  0  0  0  0  0  0  0  0
   50.4440   54.5656   30.4002 C   0  0  0  0  0  0  0  0  0  0  0  0
   49.8763   55.8372   30.8427 N   0  0  0  0  0  0  0  0  0  0  0  0
   49.5092   56.7828   29.9228 C   0  0  0  0  0  0  0  0  0  0  0  0
   49.6869   56.5205   28.5503 C   0  0  0  0  0  0  0  0  0  0  0  0
   50.2535   55.2534   28.1101 C   0  0  0  0  0  0  0  0  0  0  0  0
   50.4380   54.9787   26.6846 N   0  0  0  0  0  0  0  0  0  0  0  0
   49.2243   57.6714   27.8138 N   0  0  0  0  0  0  0  0  0  0  0  0
   48.7697   58.6287   28.7511 C   0  0  0  0  0  0  0  0  0  0  0  0
   48.9360   58.0964   30.0622 N   0  0  0  0  0  0  0  0  0  0  0  0
  2  1  1  6  0  0  0
  2  3  1  0  0  0  0
  2  5  1  0  0  0  0
  3  4  1  0  0  0  0
  3 17  1  0  0  0  0
  5  6  1  0  0  0  0
  7  6  1  1  0  0  0
  7  8  1  0  0  0  0
  7  9  1  0  0  0  0
 10  9  1  6  0  0  0
 10 11  1  0  0  0  0
 10 12  1  0  0  0  0
 11 16  1  0  0  0  0
 12 13  1  1  0  0  0
 12 14  1  0  0  0  0
 14 15  1  1  0  0  0
 14 16  1  0  0  0  0
 16 27  1  6  0  0  0
 18 19  2  0  0  0  0
 18 23  1  0  0  0  0
 19 20  1  0  0  0  0
 20 21  2  0  0  0  0
 21 22  1  0  0  0  0
 21 27  1  0  0  0  0
 22 23  2  0  0  0  0
 22 25  1  0  0  0  0
 23 24  1  0  0  0  0
 25 26  2  0  0  0  0
 26 27  1  0  0  0  0
M  END
>  <CHROM.1>
36.41352755,53.60530632,173.63496242,55.96398839,-178.31915800,-64.64230052
-38.49635107,46.89608911,56.49905107,31.60331281,-2.85136001,0.74206722,0.08239944

>  <Name>
ligand

>  <RI>
0

>  <Rbt.Current_Directory>
/home/itssahil/PROJECTS/Mol_Feturizer/New_Systems/rnas/3GX2

>  <Rbt.Executable>
rbdock ($Id: //depot/dev/client3/rdock/2013.1/src/exe/rbdock.cxx#4 $)

>  <Rbt.Library>
libRbt.so (2013.1, Build901 2013/11/27)

>  <Rbt.Parameter_File>
/export/apps/rDock/src/rDock_2013.1_src/data/scripts/dock_solv.prm

>  <Rbt.Receptor>
prm/pocket_docking_6.prm

>  <SCORE>
-13.4219

>  <SCORE.INTER>
-10.9164

>  <SCORE.INTER.CONST>
1

>  <SCORE.INTER.POLAR>
0

>  <SCORE.INTER.ROT>
7

>  <SCORE.INTER.SOLV>
11.0645

>  <SCORE.INTER.VDW>
-19.2324

>  <SCORE.INTER.norm>
-0.40431

>  <SCORE.INTRA>
-2.50558

>  <SCORE.INTRA.DIHEDRAL>
-8.64675

>  <SCORE.INTRA.DIHEDRAL.0>
13.9704

>  <SCORE.INTRA.POLAR>
0

>  <SCORE.INTRA.POLAR.0>
0

>  <SCORE.INTRA.REPUL>
0

>  <SCORE.INTRA.REPUL.0>
0

>  <SCORE.INTRA.SOLV>
2.7999

>  <SCORE.INTRA.SOLV.lig_0>
-70.9758

>  <SCORE.INTRA.VDW>
0.417839

>  <SCORE.INTRA.VDW.0>
-2.70686

>  <SCORE.INTRA.norm>
-0.0927994

>  <SCORE.RESTR>
0

>  <SCORE.RESTR.CAVITY>
0

>  <SCORE.RESTR.norm>
0

>  <SCORE.SYSTEM>
0

>  <SCORE.SYSTEM.CONST>
0

>  <SCORE.SYSTEM.DIHEDRAL>
0

>  <SCORE.SYSTEM.SOLV>
0

>  <SCORE.SYSTEM.norm>
0

>  <SCORE.heavy>
27

>  <SCORE.norm>
-0.497109

>  <RMSD>
6.698

$$$$
ligand
 OpenBabel11021811473D
libRbt.so/2013.1/901 2013/11/27
 27 29  0  0  0  0  0  0  0  0999 V2000
   44.0071   53.2883   36.4432 N   0  0  0  0  0  0  0  0  0  0  0  0
   45.2751   53.2976   35.7173 C   0  0  2  0  0  0  0  0  0  0  0  0
   46.5075   53.1775   36.6163 C   0  0  0  0  0  0  0  0  0  0  0  0
   47.3749   52.4339   36.2976 O   0  0  0  0  0  0  0  0  0  0  0  0
   45.4053   54.4183   34.6646 C   0  0  0  0  0  0  0  0  0  0  0  0
   46.5528   54.3540   33.6186 C   0  0  0  0  0  0  0  0  0  0  0  0
   46.6917   55.5926   32.6939 C   0  0  2  0  0  0  0  0  0  0  0  0
   47.6517   55.3885   31.6091 N   0  0  0  0  0  0  0  0  0  0  0  0
   46.9478   56.9034   33.4998 C   0  0  0  0  0  0  0  0  0  0  0  0
   47.2912   58.2116   32.7105 C   0  0  1  0  0  0  0  0  0  0  0  0
   48.4675   58.2326   31.8485 O   0  0  0  0  0  0  0  0  0  0  0  0
   46.1589   58.8227   31.8386 C   0  0  1  0  0  0  0  0  0  0  0  0
   45.0082   59.3516   32.5105 O   0  0  0  0  0  0  0  0  0  0  0  0
   46.8901   59.6990   30.7749 C   0  0  1  0  0  0  0  0  0  0  0  0
   46.7708   61.0978   30.8752 O   0  0  0  0  0  0  0  0  0  0  0  0
   48.2895   59.0773   30.7293 C   0  0  2  0  0  0  0  0  0  0  0  0
   46.8100   54.2443   37.4859 O   0  0  0  0  0  0  0  0  0  0  0  0
   50.5803   54.7632   28.3571 N   0  0  0  0  0  0  0  0  0  0  0  0
   50.5890   55.0913   29.7177 C   0  0  0  0  0  0  0  0  0  0  0  0
   49.9157   56.3019   30.1826 N   0  0  0  0  0  0  0  0  0  0  0  0
   49.2735   57.1170   29.2891 C   0  0  0  0  0  0  0  0  0  0  0  0
   49.2711   56.7804   27.9213 C   0  0  0  0  0  0  0  0  0  0  0  0
   49.9430   55.5741   27.4586 C   0  0  0  0  0  0  0  0  0  0  0  0
   49.9408   55.2223   26.0382 N   0  0  0  0  0  0  0  0  0  0  0  0
   48.5340   57.7987   27.2137 N   0  0  0  0  0  0  0  0  0  0  0  0
   48.0951   58.7513   28.1631 C   0  0  0  0  0  0  0  0  0  0  0  0
   48.5413   58.3458   29.4541 N   0  0  0  0  0  0  0  0  0  0  0  0
  2  1  1  1  0  0  0
  2  3  1  0  0  0  0
  2  5  1  0  0  0  0
  3  4  1  0  0  0  0
  3 17  1  0  0  0  0
  5  6  1  0  0  0  0
  7  6  1  1  0  0  0
  7  8  1  0  0  0  0
  7  9  1  0  0  0  0
 10  9  1  6  0  0  0
 10 11  1  0  0  0  0
 10 12  1  0  0  0  0
 11 16  1  0  0  0  0
 12 13  1  1  0  0  0
 12 14  1  0  0  0  0
 14 15  1  1  0  0  0
 14 16  1  0  0  0  0
 16 27  1  6  0  0  0
 18 19  2  0  0  0  0
 18 23  1  0  0  0  0
 19 20  1  0  0  0  0
 20 21  2  0  0  0  0
 21 22  1  0  0  0  0
 21 27  1  0  0  0  0
 22 23  2  0  0  0  0
 22 25  1  0  0  0  0
 23 24  1  0  0  0  0
 25 26  2  0  0  0  0
 26 27  1  0  0  0  0
M  END
>  <CHROM.1>
135.22560171,-166.59954075,-174.04362647,-171.40330473,172.37389130,-59.16595596
-19.37811812,47.60730494,56.42285354,31.73623571,-2.22504865,0.96409543,-0.56831668

>  <Name>
ligand

>  <RI>
0

>  <Rbt.Current_Directory>
/home/itssahil/PROJECTS/Mol_Feturizer/New_Systems/rnas/3GX2

>  <Rbt.Executable>
rbdock ($Id: //depot/dev/client3/rdock/2013.1/src/exe/rbdock.cxx#4 $)

>  <Rbt.Library>
libRbt.so (2013.1, Build901 2013/11/27)

>  <Rbt.Parameter_File>
/export/apps/rDock/src/rDock_2013.1_src/data/scripts/dock_solv.prm

>  <Rbt.Receptor>
prm/pocket_docking_6.prm

>  <SCORE>
-13.2369

>  <SCORE.INTER>
-10.7387

>  <SCORE.INTER.CONST>
1

>  <SCORE.INTER.POLAR>
0

>  <SCORE.INTER.ROT>
7

>  <SCORE.INTER.SOLV>
11.7048

>  <SCORE.INTER.VDW>
-19.3274

>  <SCORE.INTER.norm>
-0.397731

>  <SCORE.INTRA>
-2.49815

>  <SCORE.INTRA.DIHEDRAL>
-7.96946

>  <SCORE.INTRA.DIHEDRAL.0>
13.9704

>  <SCORE.INTRA.POLAR>
0

>  <SCORE.INTRA.POLAR.0>
0

>  <SCORE.INTRA.REPUL>
0

>  <SCORE.INTRA.REPUL.0>
0

>  <SCORE.INTRA.SOLV>
3.0127

>  <SCORE.INTRA.SOLV.lig_0>
-70.9758

>  <SCORE.INTRA.VDW>
-0.0197674

>  <SCORE.INTRA.VDW.0>
-2.70686

>  <SCORE.INTRA.norm>
-0.0925239

>  <SCORE.RESTR>
0

>  <SCORE.RESTR.CAVITY>
0

>  <SCORE.RESTR.norm>
0

>  <SCORE.SYSTEM>
0

>  <SCORE.SYSTEM.CONST>
0

>  <SCORE.SYSTEM.DIHEDRAL>
0

>  <SCORE.SYSTEM.SOLV>
0

>  <SCORE.SYSTEM.norm>
0

>  <SCORE.heavy>
27

>  <SCORE.norm>
-0.490255

>  <RMSD>
6.726

$$$$
ligand
 OpenBabel11021811473D
libRbt.so/2013.1/901 2013/11/27
 27 29  0  0  0  0  0  0  0  0999 V2000
   48.2620   54.5786   33.0499 N   0  0  0  0  0  0  0  0  0  0  0  0
   49.0527   54.8293   34.2528 C   0  0  2  0  0  0  0  0  0  0  0  0
   48.7041   53.9142   35.4285 C   0  0  0  0  0  0  0  0  0  0  0  0
   48.1618   52.8830   35.2065 O   0  0  0  0  0  0  0  0  0  0  0  0
   49.1554   56.3151   34.6567 C   0  0  0  0  0  0  0  0  0  0  0  0
   49.7504   57.3403   33.6517 C   0  0  0  0  0  0  0  0  0  0  0  0
   49.0393   57.4244   32.2748 C   0  0  2  0  0  0  0  0  0  0  0  0
   49.7939   56.7739   31.2036 N   0  0  0  0  0  0  0  0  0  0  0  0
   48.6082   58.8816   31.9227 C   0  0  0  0  0  0  0  0  0  0  0  0
   47.7607   59.1184   30.6273 C   0  0  1  0  0  0  0  0  0  0  0  0
   48.3813   58.9071   29.3244 O   0  0  0  0  0  0  0  0  0  0  0  0
   46.3985   58.3757   30.5344 C   0  0  1  0  0  0  0  0  0  0  0  0
   45.3677   58.7503   31.4576 O   0  0  0  0  0  0  0  0  0  0  0  0
   46.0706   58.3125   29.0104 C   0  0  1  0  0  0  0  0  0  0  0  0
   45.0102   59.1027   28.5288 O   0  0  0  0  0  0  0  0  0  0  0  0
   47.4514   58.4526   28.3619 C   0  0  2  0  0  0  0  0  0  0  0  0
   49.4286   54.0584   36.6285 O   0  0  0  0  0  0  0  0  0  0  0  0
   48.5463   53.1787   29.0502 N   0  0  0  0  0  0  0  0  0  0  0  0
   48.0952   54.0875   30.0143 C   0  0  0  0  0  0  0  0  0  0  0  0
   47.8511   55.4809   29.6486 N   0  0  0  0  0  0  0  0  0  0  0  0
   48.0612   55.9004   28.3621 C   0  0  0  0  0  0  0  0  0  0  0  0
   48.5170   54.9797   27.3985 C   0  0  0  0  0  0  0  0  0  0  0  0
   48.7608   53.5914   27.7638 C   0  0  0  0  0  0  0  0  0  0  0  0
   49.2335   52.6332   26.7639 N   0  0  0  0  0  0  0  0  0  0  0  0
   48.6537   55.6793   26.1443 N   0  0  0  0  0  0  0  0  0  0  0  0
   48.2800   57.0268   26.3594 C   0  0  0  0  0  0  0  0  0  0  0  0
   47.9081   57.1831   27.7259 N   0  0  0  0  0  0  0  0  0  0  0  0
  2  1  1  6  0  0  0
  2  3  1  0  0  0  0
  2  5  1  0  0  0  0
  3  4  1  0  0  0  0
  3 17  1  0  0  0  0
  5  6  1  0  0  0  0
  7  6  1  1  0  0  0
  7  8  1  0  0  0  0
  7  9  1  0  0  0  0
 10  9  1  1  0  0  0
 10 11  1  0  0  0  0
 10 12  1  0  0  0  0
 11 16  1  0  0  0  0
 12 13  1  1  0  0  0
 12 14  1  0  0  0  0
 14 15  1  6  0  0  0
 14 16  1  0  0  0  0
 16 27  1  1  0  0  0
 18 19  2  0  0  0  0
 18 23  1  0  0  0  0
 19 20  1  0  0  0  0
 20 21  2  0  0  0  0
 21 22  1  0  0  0  0
 21 27  1  0  0  0  0
 22 23  2  0  0  0  0
 22 25  1  0  0  0  0
 23 24  1  0  0  0  0
 25 26  2  0  0  0  0
 26 27  1  0  0  0  0
M  END
>  <CHROM.1>
21.40756872,-58.23495398,57.29837656,-104.56536697,-174.44144477,-68.30145025
65.97661295,48.13777218,56.23866809,30.66586341,-1.04531943,1.22456974,-1.78696664

>  <Name>
ligand

>  <RI>
0

>  <Rbt.Current_Directory>
/home/itssahil/PROJECTS/Mol_Feturizer/New_Systems/rnas/3GX2

>  <Rbt.Executable>
rbdock ($Id: //depot/dev/client3/rdock/2013.1/src/exe/rbdock.cxx#4 $)

>  <Rbt.Library>
libRbt.so (2013.1, Build901 2013/11/27)

>  <Rbt.Parameter_File>
/export/apps/rDock/src/rDock_2013.1_src/data/scripts/dock_solv.prm

>  <Rbt.Receptor>
prm/pocket_docking_3.prm

>  <SCORE>
-6.89724

>  <SCORE.INTER>
-6.8251

>  <SCORE.INTER.CONST>
1

>  <SCORE.INTER.POLAR>
0

>  <SCORE.INTER.ROT>
7

>  <SCORE.INTER.SOLV>
12.9486

>  <SCORE.INTER.VDW>
-17.1329

>  <SCORE.INTER.norm>
-0.252781

>  <SCORE.INTRA>
-0.0931439

>  <SCORE.INTRA.DIHEDRAL>
-4.03223

>  <SCORE.INTRA.DIHEDRAL.0>
13.9704

>  <SCORE.INTRA.POLAR>
0

>  <SCORE.INTRA.POLAR.0>
0

>  <SCORE.INTRA.REPUL>
0

>  <SCORE.INTRA.REPUL.0>
0

>  <SCORE.INTRA.SOLV>
6.67985

>  <SCORE.INTRA.SOLV.lig_0>
-70.9758

>  <SCORE.INTRA.VDW>
-1.41695

>  <SCORE.INTRA.VDW.0>
-2.70686

>  <SCORE.INTRA.norm>
-0.00344978

>  <SCORE.RESTR>
0.0210043

>  <SCORE.RESTR.CAVITY>
0.0210043

>  <SCORE.RESTR.norm>
0.000777939

>  <SCORE.SYSTEM>
0

>  <SCORE.SYSTEM.CONST>
0

>  <SCORE.SYSTEM.DIHEDRAL>
0

>  <SCORE.SYSTEM.SOLV>
0

>  <SCORE.SYSTEM.norm>
0

>  <SCORE.heavy>
27

>  <SCORE.norm>
-0.255453

>  <RMSD>
6.735

$$$$
ligand
 OpenBabel11021811473D
libRbt.so/2013.1/901 2013/11/27
 27 29  0  0  0  0  0  0  0  0999 V2000
   44.1983   53.6856   36.0982 N   0  0  0  0  0  0  0  0  0  0  0  0
   45.4921   53.4799   35.4510 C   0  0  2  0  0  0  0  0  0  0  0  0
   46.6059   53.0521   36.4089 C   0  0  0  0  0  0  0  0  0  0  0  0
   46.4773   53.2729   37.5672 O   0  0  0  0  0  0  0  0  0  0  0  0
   45.9216   54.6145   34.4973 C   0  0  0  0  0  0  0  0  0  0  0  0
   47.2217   54.4575   33.6605 C   0  0  0  0  0  0  0  0  0  0  0  0
   47.5178   55.6017   32.6548 C   0  0  2  0  0  0  0  0  0  0  0  0
   48.6087   55.2824   31.7340 N   0  0  0  0  0  0  0  0  0  0  0  0
   47.6995   56.9783   33.3657 C   0  0  0  0  0  0  0  0  0  0  0  0
   47.7960   58.2686   32.4836 C   0  0  1  0  0  0  0  0  0  0  0  0
   48.8295   58.3515   31.4578 O   0  0  0  0  0  0  0  0  0  0  0  0
   46.4962   58.7257   31.7643 C   0  0  1  0  0  0  0  0  0  0  0  0
   45.4067   59.1817   32.5768 O   0  0  0  0  0  0  0  0  0  0  0  0
   46.9783   59.6076   30.5710 C   0  0  1  0  0  0  0  0  0  0  0  0
   46.7371   60.9928   30.6326 O   0  0  0  0  0  0  0  0  0  0  0  0
   48.4113   59.1156   30.3447 C   0  0  2  0  0  0  0  0  0  0  0  0
   47.4800   52.0235   36.0045 O   0  0  0  0  0  0  0  0  0  0  0  0
   50.7041   54.8716   27.8509 N   0  0  0  0  0  0  0  0  0  0  0  0
   50.8665   55.2653   29.1841 C   0  0  0  0  0  0  0  0  0  0  0  0
   50.1665   56.4442   29.6892 N   0  0  0  0  0  0  0  0  0  0  0  0
   49.3489   57.1653   28.8605 C   0  0  0  0  0  0  0  0  0  0  0  0
   49.1925   56.7633   27.5196 C   0  0  0  0  0  0  0  0  0  0  0  0
   49.8910   55.5887   27.0166 C   0  0  0  0  0  0  0  0  0  0  0  0
   49.7290   55.1690   25.6242 N   0  0  0  0  0  0  0  0  0  0  0  0
   48.2895   57.6888   26.8800 N   0  0  0  0  0  0  0  0  0  0  0  0
   47.9057   58.6516   27.8430 C   0  0  0  0  0  0  0  0  0  0  0  0
   48.5496   58.3434   29.0760 N   0  0  0  0  0  0  0  0  0  0  0  0
  2  1  1  1  0  0  0
  2  3  1  0  0  0  0
  2  5  1  0  0  0  0
  3  4  1  0  0  0  0
  3 17  1  0  0  0  0
  5  6  1  0  0  0  0
  7  6  1  1  0  0  0
  7  8  1  0  0  0  0
  7  9  1  0  0  0  0
 10  9  1  6  0  0  0
 10 11  1  0  0  0  0
 10 12  1  0  0  0  0
 11 16  1  0  0  0  0
 12 13  1  1  0  0  0
 12 14  1  0  0  0  0
 14 15  1  1  0  0  0
 14 16  1  0  0  0  0
 16 27  1  6  0  0  0
 18 19  2  0  0  0  0
 18 23  1  0  0  0  0
 19 20  1  0  0  0  0
 20 21  2  0  0  0  0
 21 22  1  0  0  0  0
 21 27  1  0  0  0  0
 22 23  2  0  0  0  0
 22 25  1  0  0  0  0
 23 24  1  0  0  0  0
 25 26  2  0  0  0  0
 26 27  1  0  0  0  0
M  END
>  <CHROM.1>
-20.60469164,-174.97932254,175.71360792,-169.48900400,-171.20976379,-56.79691695
-18.11602668,47.82049203,56.38786636,31.48646390,2.19208509,-0.99664358,2.55213617

>  <Name>
ligand

>  <RI>
0

>  <Rbt.Current_Directory>
/home/itssahil/PROJECTS/Mol_Feturizer/New_Systems/rnas/3GX2

>  <Rbt.Executable>
rbdock ($Id: //depot/dev/client3/rdock/2013.1/src/exe/rbdock.cxx#4 $)

>  <Rbt.Library>
libRbt.so (2013.1, Build901 2013/11/27)

>  <Rbt.Parameter_File>
/export/apps/rDock/src/rDock_2013.1_src/data/scripts/dock_solv.prm

>  <Rbt.Receptor>
prm/pocket_docking_4.prm

>  <SCORE>
-13.1349

>  <SCORE.INTER>
-10.188

>  <SCORE.INTER.CONST>
1

>  <SCORE.INTER.POLAR>
0

>  <SCORE.INTER.ROT>
7

>  <SCORE.INTER.SOLV>
12.4112

>  <SCORE.INTER.VDW>
-19.1957

>  <SCORE.INTER.norm>
-0.377332

>  <SCORE.INTRA>
-2.9469

>  <SCORE.INTRA.DIHEDRAL>
-8.63719

>  <SCORE.INTRA.DIHEDRAL.0>
13.9704

>  <SCORE.INTRA.POLAR>
0

>  <SCORE.INTRA.POLAR.0>
0

>  <SCORE.INTRA.REPUL>
0

>  <SCORE.INTRA.REPUL.0>
0

>  <SCORE.INTRA.SOLV>
2.36995

>  <SCORE.INTRA.SOLV.lig_0>
-70.9758

>  <SCORE.INTRA.VDW>
0.186717

>  <SCORE.INTRA.VDW.0>
-2.70686

>  <SCORE.INTRA.norm>
-0.109145

>  <SCORE.RESTR>
0

>  <SCORE.RESTR.CAVITY>
0

>  <SCORE.RESTR.norm>
0

>  <SCORE.SYSTEM>
0

>  <SCORE.SYSTEM.CONST>
0

>  <SCORE.SYSTEM.DIHEDRAL>
0

>  <SCORE.SYSTEM.SOLV>
0

>  <SCORE.SYSTEM.norm>
0

>  <SCORE.heavy>
27

>  <SCORE.norm>
-0.486477

>  <RMSD>
6.747

$$$$
ligand
 OpenBabel11021811473D
libRbt.so/2013.1/901 2013/11/27
 27 29  0  0  0  0  0  0  0  0999 V2000
   43.0004   52.6320   34.8477 N   0  0  0  0  0  0  0  0  0  0  0  0
   43.8705   53.5057   35.6317 C   0  0  2  0  0  0  0  0  0  0  0  0
   43.2348   54.0180   36.9258 C   0  0  0  0  0  0  0  0  0  0  0  0
   42.0536   53.9907   37.0301 O   0  0  0  0  0  0  0  0  0  0  0  0
   44.5633   54.6200   34.8196 C   0  0  0  0  0  0  0  0  0  0  0  0
   45.6374   54.2396   33.7629 C   0  0  0  0  0  0  0  0  0  0  0  0
   46.1616   55.4068   32.8847 C   0  0  2  0  0  0  0  0  0  0  0  0
   47.0969   54.9654   31.8502 N   0  0  0  0  0  0  0  0  0  0  0  0
   46.7099   56.5888   33.7422 C   0  0  0  0  0  0  0  0  0  0  0  0
   47.4306   57.7716   33.0115 C   0  0  1  0  0  0  0  0  0  0  0  0
   48.7038   57.5236   32.3447 O   0  0  0  0  0  0  0  0  0  0  0  0
   46.5944   58.5669   31.9703 C   0  0  1  0  0  0  0  0  0  0  0  0
   45.4878   59.3409   32.4512 O   0  0  0  0  0  0  0  0  0  0  0  0
   47.6435   59.2387   31.0311 C   0  0  1  0  0  0  0  0  0  0  0  0
   47.7995   60.6355   31.1060 O   0  0  0  0  0  0  0  0  0  0  0  0
   48.8759   58.3462   31.2082 C   0  0  2  0  0  0  0  0  0  0  0  0
   44.0213   54.0445   38.0947 O   0  0  0  0  0  0  0  0  0  0  0  0
   47.6825   57.4177   25.9927 N   0  0  0  0  0  0  0  0  0  0  0  0
   47.1114   58.3747   26.8395 C   0  0  0  0  0  0  0  0  0  0  0  0
   47.5583   58.4841   28.2264 N   0  0  0  0  0  0  0  0  0  0  0  0
   48.5375   57.6525   28.7002 C   0  0  0  0  0  0  0  0  0  0  0  0
   49.1056   56.6909   27.8419 C   0  0  0  0  0  0  0  0  0  0  0  0
   48.6593   56.5819   26.4601 C   0  0  0  0  0  0  0  0  0  0  0  0
   49.2489   55.5842   25.5666 N   0  0  0  0  0  0  0  0  0  0  0  0
   50.0981   55.9581   28.5895 N   0  0  0  0  0  0  0  0  0  0  0  0
   50.1221   56.4824   29.9033 C   0  0  0  0  0  0  0  0  0  0  0  0
   49.1643   57.5336   29.9911 N   0  0  0  0  0  0  0  0  0  0  0  0
  2  1  1  6  0  0  0
  2  3  1  0  0  0  0
  2  5  1  0  0  0  0
  3  4  1  0  0  0  0
  3 17  1  0  0  0  0
  5  6  1  0  0  0  0
  7  6  1  1  0  0  0
  7  8  1  0  0  0  0
  7  9  1  0  0  0  0
 10  9  1  6  0  0  0
 10 11  1  0  0  0  0
 10 12  1  0  0  0  0
 11 16  1  0  0  0  0
 12 13  1  1  0  0  0
 12 14  1  0  0  0  0
 14 15  1  1  0  0  0
 14 16  1  0  0  0  0
 16 27  1  6  0  0  0
 18 19  2  0  0  0  0
 18 23  1  0  0  0  0
 19 20  1  0  0  0  0
 20 21  2  0  0  0  0
 21 22  1  0  0  0  0
 21 27  1  0  0  0  0
 22 23  2  0  0  0  0
 22 25  1  0  0  0  0
 23 24  1  0  0  0  0
 25 26  2  0  0  0  0
 26 27  1  0  0  0  0
M  END
>  <CHROM.1>
-19.59455813,-67.38963570,173.31612037,-175.90194293,172.85892157,-66.52251192
131.96916219,46.82385594,56.52104205,31.64831513,2.97953611,1.05588624,0.57865058

>  <Name>
ligand

>  <RI>
0

>  <Rbt.Current_Directory>
/home/itssahil/PROJECTS/Mol_Feturizer/New_Systems/rnas/3GX2

>  <Rbt.Executable>
rbdock ($Id: //depot/dev/client3/rdock/2013.1/src/exe/rbdock.cxx#4 $)

>  <Rbt.Library>
libRbt.so (2013.1, Build901 2013/11/27)

>  <Rbt.Parameter_File>
/export/apps/rDock/src/rDock_2013.1_src/data/scripts/dock_solv.prm

>  <Rbt.Receptor>
prm/pocket_docking_7.prm

>  <SCORE>
-12.509

>  <SCORE.INTER>
-9.92397

>  <SCORE.INTER.CONST>
1

>  <SCORE.INTER.POLAR>
0

>  <SCORE.INTER.ROT>
7

>  <SCORE.INTER.SOLV>
12.3267

>  <SCORE.INTER.VDW>
-18.9916

>  <SCORE.INTER.norm>
-0.367555

>  <SCORE.INTRA>
-2.58505

>  <SCORE.INTRA.DIHEDRAL>
-8.69722

>  <SCORE.INTRA.DIHEDRAL.0>
13.9704

>  <SCORE.INTRA.POLAR>
0

>  <SCORE.INTRA.POLAR.0>
0

>  <SCORE.INTRA.REPUL>
0

>  <SCORE.INTRA.REPUL.0>
0

>  <SCORE.INTRA.SOLV>
2.27896

>  <SCORE.INTRA.SOLV.lig_0>
-70.9758

>  <SCORE.INTRA.VDW>
0.624076

>  <SCORE.INTRA.VDW.0>
-2.70686

>  <SCORE.INTRA.norm>
-0.0957428

>  <SCORE.RESTR>
0

>  <SCORE.RESTR.CAVITY>
0

>  <SCORE.RESTR.norm>
0

>  <SCORE.SYSTEM>
0

>  <SCORE.SYSTEM.CONST>
0

>  <SCORE.SYSTEM.DIHEDRAL>
0

>  <SCORE.SYSTEM.SOLV>
0

>  <SCORE.SYSTEM.norm>
0

>  <SCORE.heavy>
27

>  <SCORE.norm>
-0.463297

>  <RMSD>
6.747

$$$$
ligand
 OpenBabel11021811473D
libRbt.so/2013.1/901 2013/11/27
 27 29  0  0  0  0  0  0  0  0999 V2000
   44.0560   53.3776   36.0515 N   0  0  0  0  0  0  0  0  0  0  0  0
   45.4490   53.4066   35.6115 C   0  0  2  0  0  0  0  0  0  0  0  0
   46.4638   53.3740   36.7563 C   0  0  0  0  0  0  0  0  0  0  0  0
   46.1017   53.6671   37.8471 O   0  0  0  0  0  0  0  0  0  0  0  0
   45.7676   54.4858   34.5557 C   0  0  0  0  0  0  0  0  0  0  0  0
   47.1121   54.4210   33.7789 C   0  0  0  0  0  0  0  0  0  0  0  0
   47.3766   55.5886   32.7914 C   0  0  2  0  0  0  0  0  0  0  0  0
   48.4798   55.3162   31.8701 N   0  0  0  0  0  0  0  0  0  0  0  0
   47.5140   56.9592   33.5233 C   0  0  0  0  0  0  0  0  0  0  0  0
   47.6394   58.2592   32.6591 C   0  0  1  0  0  0  0  0  0  0  0  0
   48.7185   58.3616   31.6833 O   0  0  0  0  0  0  0  0  0  0  0  0
   46.3701   58.7120   31.8846 C   0  0  1  0  0  0  0  0  0  0  0  0
   45.2399   59.1501   32.6500 O   0  0  0  0  0  0  0  0  0  0  0  0
   46.8987   59.6101   30.7235 C   0  0  1  0  0  0  0  0  0  0  0  0
   46.6421   60.9925   30.7873 O   0  0  0  0  0  0  0  0  0  0  0  0
   48.3452   59.1331   30.5593 C   0  0  2  0  0  0  0  0  0  0  0  0
   47.6113   52.5689   36.6128 O   0  0  0  0  0  0  0  0  0  0  0  0
   50.5980   54.8014   28.1827 N   0  0  0  0  0  0  0  0  0  0  0  0
   50.6653   55.1627   29.5331 C   0  0  0  0  0  0  0  0  0  0  0  0
   49.9932   56.3729   30.0010 N   0  0  0  0  0  0  0  0  0  0  0  0
   49.2948   57.1550   29.1202 C   0  0  0  0  0  0  0  0  0  0  0  0
   49.2337   56.7851   27.7625 C   0  0  0  0  0  0  0  0  0  0  0  0
   49.9043   55.5794   27.2968 C   0  0  0  0  0  0  0  0  0  0  0  0
   49.8411   55.1930   25.8868 N   0  0  0  0  0  0  0  0  0  0  0  0
   48.4457   57.7733   27.0672 N   0  0  0  0  0  0  0  0  0  0  0  0
   48.0352   58.7413   28.0138 C   0  0  0  0  0  0  0  0  0  0  0  0
   48.5494   58.3751   29.2911 N   0  0  0  0  0  0  0  0  0  0  0  0
  2  1  1  1  0  0  0
  2  3  1  0  0  0  0
  2  5  1  0  0  0  0
  3  4  1  0  0  0  0
  3 17  1  0  0  0  0
  5  6  1  0  0  0  0
  7  6  1  1  0  0  0
  7  8  1  0  0  0  0
  7  9  1  0  0  0  0
 10  9  1  6  0  0  0
 10 11  1  0  0  0  0
 10 12  1  0  0  0  0
 11 16  1  0  0  0  0
 12 13  1  1  0  0  0
 12 14  1  0  0  0  0
 14 15  1  1  0  0  0
 14 16  1  0  0  0  0
 16 27  1  6  0  0  0
 18 19  2  0  0  0  0
 18 23  1  0  0  0  0
 19 20  1  0  0  0  0
 20 21  2  0  0  0  0
 21 22  1  0  0  0  0
 21 27  1  0  0  0  0
 22 23  2  0  0  0  0
 22 25  1  0  0  0  0
 23 24  1  0  0  0  0
 25 26  2  0  0  0  0
 26 27  1  0  0  0  0
M  END
>  <CHROM.1>
-18.85049200,-166.45354106,-176.95620193,-166.23585487,-173.93378625,-56.86777925
-13.53261091,47.73751269,56.41786366,31.69760019,-2.20436908,0.98050444,-0.59726757

>  <Name>
ligand

>  <RI>
0

>  <Rbt.Current_Directory>
/home/itssahil/PROJECTS/Mol_Feturizer/New_Systems/rnas/3GX2

>  <Rbt.Executable>
rbdock ($Id: //depot/dev/client3/rdock/2013.1/src/exe/rbdock.cxx#4 $)

>  <Rbt.Library>
libRbt.so (2013.1, Build901 2013/11/27)

>  <Rbt.Parameter_File>
/export/apps/rDock/src/rDock_2013.1_src/data/scripts/dock_solv.prm

>  <Rbt.Receptor>
prm/pocket_docking_5.prm

>  <SCORE>
-13.1366

>  <SCORE.INTER>
-10.5354

>  <SCORE.INTER.CONST>
1

>  <SCORE.INTER.POLAR>
0

>  <SCORE.INTER.ROT>
7

>  <SCORE.INTER.SOLV>
11.3033

>  <SCORE.INTER.VDW>
-19.058

>  <SCORE.INTER.norm>
-0.3902

>  <SCORE.INTRA>
-2.60116

>  <SCORE.INTRA.DIHEDRAL>
-8.0779

>  <SCORE.INTRA.DIHEDRAL.0>
13.9704

>  <SCORE.INTRA.POLAR>
0

>  <SCORE.INTRA.POLAR.0>
0

>  <SCORE.INTRA.REPUL>
0

>  <SCORE.INTRA.REPUL.0>
0

>  <SCORE.INTRA.SOLV>
2.67489

>  <SCORE.INTRA.SOLV.lig_0>
-70.9758

>  <SCORE.INTRA.VDW>
0.10034

>  <SCORE.INTRA.VDW.0>
-2.70686

>  <SCORE.INTRA.norm>
-0.0963394

>  <SCORE.RESTR>
0

>  <SCORE.RESTR.CAVITY>
0

>  <SCORE.RESTR.norm>
0

>  <SCORE.SYSTEM>
0

>  <SCORE.SYSTEM.CONST>
0

>  <SCORE.SYSTEM.DIHEDRAL>
0

>  <SCORE.SYSTEM.SOLV>
0

>  <SCORE.SYSTEM.norm>
0

>  <SCORE.heavy>
27

>  <SCORE.norm>
-0.486539

>  <RMSD>
6.750

$$$$
ligand
 OpenBabel11021811473D
libRbt.so/2013.1/901 2013/11/27
 27 29  0  0  0  0  0  0  0  0999 V2000
   47.6247   54.0836   39.1344 N   0  0  0  0  0  0  0  0  0  0  0  0
   47.4517   54.3236   37.7035 C   0  0  2  0  0  0  0  0  0  0  0  0
   46.0789   53.9146   37.1656 C   0  0  0  0  0  0  0  0  0  0  0  0
   45.9369   53.8012   35.9934 O   0  0  0  0  0  0  0  0  0  0  0  0
   48.6161   53.8248   36.8224 C   0  0  0  0  0  0  0  0  0  0  0  0
   49.4008   54.8410   35.9467 C   0  0  0  0  0  0  0  0  0  0  0  0
   48.5710   55.5761   34.8607 C   0  0  2  0  0  0  0  0  0  0  0  0
   48.0121   54.6679   33.8593 N   0  0  0  0  0  0  0  0  0  0  0  0
   49.3501   56.7737   34.2345 C   0  0  0  0  0  0  0  0  0  0  0  0
   48.5537   57.8234   33.3881 C   0  0  1  0  0  0  0  0  0  0  0  0
   49.2053   58.4569   32.2473 O   0  0  0  0  0  0  0  0  0  0  0  0
   47.1656   57.3806   32.8468 C   0  0  1  0  0  0  0  0  0  0  0  0
   46.1230   57.1354   33.7996 O   0  0  0  0  0  0  0  0  0  0  0  0
   46.8829   58.3178   31.6319 C   0  0  1  0  0  0  0  0  0  0  0  0
   45.8715   59.2873   31.7659 O   0  0  0  0  0  0  0  0  0  0  0  0
   48.2878   58.7668   31.2178 C   0  0  2  0  0  0  0  0  0  0  0  0
   45.1962   53.2338   38.0276 O   0  0  0  0  0  0  0  0  0  0  0  0
   50.7105   54.5961   28.7233 N   0  0  0  0  0  0  0  0  0  0  0  0
   50.5074   54.7645   30.0978 C   0  0  0  0  0  0  0  0  0  0  0  0
   49.8314   55.9601   30.5963 N   0  0  0  0  0  0  0  0  0  0  0  0
   49.3937   56.9174   29.7204 C   0  0  0  0  0  0  0  0  0  0  0  0
   49.6039   56.7409   28.3388 C   0  0  0  0  0  0  0  0  0  0  0  0
   50.2783   55.5495   27.8428 C   0  0  0  0  0  0  0  0  0  0  0  0
   50.4967   55.3639   26.4078 N   0  0  0  0  0  0  0  0  0  0  0  0
   49.0524   57.8852   27.6551 N   0  0  0  0  0  0  0  0  0  0  0  0
   48.5115   58.7524   28.6333 C   0  0  0  0  0  0  0  0  0  0  0  0
   48.7113   58.1698   29.9181 N   0  0  0  0  0  0  0  0  0  0  0  0
  2  1  1  1  0  0  0
  2  3  1  0  0  0  0
  2  5  1  0  0  0  0
  3  4  1  0  0  0  0
  3 17  1  0  0  0  0
  5  6  1  0  0  0  0
  7  6  1  1  0  0  0
  7  8  1  0  0  0  0
  7  9  1  0  0  0  0
 10  9  1  6  0  0  0
 10 11  1  0  0  0  0
 10 12  1  0  0  0  0
 11 16  1  0  0  0  0
 12 13  1  1  0  0  0
 12 14  1  0  0  0  0
 14 15  1  1  0  0  0
 14 16  1  0  0  0  0
 16 27  1  6  0  0  0
 18 19  2  0  0  0  0
 18 23  1  0  0  0  0
 19 20  1  0  0  0  0
 20 21  2  0  0  0  0
 21 22  1  0  0  0  0
 21 27  1  0  0  0  0
 22 23  2  0  0  0  0
 22 25  1  0  0  0  0
 23 24  1  0  0  0  0
 25 26  2  0  0  0  0
 26 27  1  0  0  0  0
M  END
>  <CHROM.1>
-164.16210948,-119.90230080,-61.83300217,-62.58300714,-165.41156790,-146.24808316
33.99940878,48.27799487,56.16973875,32.65726541,-2.02380909,0.91216304,-0.89519686

>  <Name>
ligand

>  <RI>
0

>  <Rbt.Current_Directory>
/home/itssahil/PROJECTS/Mol_Feturizer/New_Systems/rnas/3GX2

>  <Rbt.Executable>
rbdock ($Id: //depot/dev/client3/rdock/2013.1/src/exe/rbdock.cxx#4 $)

>  <Rbt.Library>
libRbt.so (2013.1, Build901 2013/11/27)

>  <Rbt.Parameter_File>
/export/apps/rDock/src/rDock_2013.1_src/data/scripts/dock_solv.prm

>  <Rbt.Receptor>
prm/pocket_docking_5.prm

>  <SCORE>
-12.2594

>  <SCORE.INTER>
-14.0379

>  <SCORE.INTER.CONST>
1

>  <SCORE.INTER.POLAR>
0

>  <SCORE.INTER.ROT>
7

>  <SCORE.INTER.SOLV>
13.7165

>  <SCORE.INTER.VDW>
-22.1974

>  <SCORE.INTER.norm>
-0.519921

>  <SCORE.INTRA>
1.76093

>  <SCORE.INTRA.DIHEDRAL>
-0.370329

>  <SCORE.INTRA.DIHEDRAL.0>
13.9704

>  <SCORE.INTRA.POLAR>
0

>  <SCORE.INTRA.POLAR.0>
0

>  <SCORE.INTRA.REPUL>
0

>  <SCORE.INTRA.REPUL.0>
0

>  <SCORE.INTRA.SOLV>
4.38267

>  <SCORE.INTRA.SOLV.lig_0>
-70.9758

>  <SCORE.INTRA.VDW>
-0.245238

>  <SCORE.INTRA.VDW.0>
-2.70686

>  <SCORE.INTRA.norm>
0.0652198

>  <SCORE.RESTR>
0.0175492

>  <SCORE.RESTR.CAVITY>
0.0175492

>  <SCORE.RESTR.norm>
0.00064997

>  <SCORE.SYSTEM>
0

>  <SCORE.SYSTEM.CONST>
0

>  <SCORE.SYSTEM.DIHEDRAL>
0

>  <SCORE.SYSTEM.SOLV>
0

>  <SCORE.SYSTEM.norm>
0

>  <SCORE.heavy>
27

>  <SCORE.norm>
-0.454051

>  <RMSD>
6.760

$$$$
ligand
 OpenBabel11021811473D
libRbt.so/2013.1/901 2013/11/27
 27 29  0  0  0  0  0  0  0  0999 V2000
   47.9147   54.6621   32.2905 N   0  0  0  0  0  0  0  0  0  0  0  0
   48.8194   55.2022   33.3028 C   0  0  2  0  0  0  0  0  0  0  0  0
   49.4246   54.1422   34.2256 C   0  0  0  0  0  0  0  0  0  0  0  0
   50.2085   54.4831   35.0478 O   0  0  0  0  0  0  0  0  0  0  0  0
   48.2711   56.4244   34.0688 C   0  0  0  0  0  0  0  0  0  0  0  0
   47.7737   57.6637   33.2739 C   0  0  0  0  0  0  0  0  0  0  0  0
   48.8561   58.4199   32.4584 C   0  0  2  0  0  0  0  0  0  0  0  0
   50.0386   58.7524   33.2529 N   0  0  0  0  0  0  0  0  0  0  0  0
   48.2679   59.6453   31.6931 C   0  0  0  0  0  0  0  0  0  0  0  0
   47.3866   59.3826   30.4255 C   0  0  1  0  0  0  0  0  0  0  0  0
   48.0403   59.1282   29.1468 O   0  0  0  0  0  0  0  0  0  0  0  0
   46.3078   58.2695   30.5393 C   0  0  1  0  0  0  0  0  0  0  0  0
   45.2134   58.4877   31.4393 O   0  0  0  0  0  0  0  0  0  0  0  0
   46.0117   57.8358   29.0702 C   0  0  1  0  0  0  0  0  0  0  0  0
   44.7632   58.1787   28.5183 O   0  0  0  0  0  0  0  0  0  0  0  0
   47.2870   58.2534   28.3313 C   0  0  2  0  0  0  0  0  0  0  0  0
   48.7206   52.9361   34.4141 O   0  0  0  0  0  0  0  0  0  0  0  0
   47.2698   53.2954   26.1164 N   0  0  0  0  0  0  0  0  0  0  0  0
   46.1679   54.1241   26.3574 C   0  0  0  0  0  0  0  0  0  0  0  0
   46.3601   55.4380   26.9670 N   0  0  0  0  0  0  0  0  0  0  0  0
   47.6182   55.8624   27.3022 C   0  0  0  0  0  0  0  0  0  0  0  0
   48.7215   55.0214   27.0580 C   0  0  0  0  0  0  0  0  0  0  0  0
   48.5291   53.7117   26.4512 C   0  0  0  0  0  0  0  0  0  0  0  0
   49.6741   52.8371   26.1959 N   0  0  0  0  0  0  0  0  0  0  0  0
   49.9104   55.7066   27.5029 N   0  0  0  0  0  0  0  0  0  0  0  0
   49.5159   56.9636   28.0187 C   0  0  0  0  0  0  0  0  0  0  0  0
   48.1007   57.0796   27.9014 N   0  0  0  0  0  0  0  0  0  0  0  0
  2  1  1  1  0  0  0
  2  3  1  0  0  0  0
  2  5  1  0  0  0  0
  3  4  1  0  0  0  0
  3 17  1  0  0  0  0
  5  6  1  0  0  0  0
  7  6  1  1  0  0  0
  7  8  1  0  0  0  0
  7  9  1  0  0  0  0
 10  9  1  1  0  0  0
 10 11  1  0  0  0  0
 10 12  1  0  0  0  0
 11 16  1  0  0  0  0
 12 13  1  6  0  0  0
 12 14  1  0  0  0  0
 14 15  1  6  0  0  0
 14 16  1  0  0  0  0
 16 27  1  1  0  0  0
 18 19  2  0  0  0  0
 18 23  1  0  0  0  0
 19 20  1  0  0  0  0
 20 21  2  0  0  0  0
 21 22  1  0  0  0  0
 21 27  1  0  0  0  0
 22 23  2  0  0  0  0
 22 25  1  0  0  0  0
 23 24  1  0  0  0  0
 25 26  2  0  0  0  0
 26 27  1  0  0  0  0
M  END
>  <CHROM.1>
177.33089193,-54.24839883,-64.63957387,-50.82639734,-73.63618080,-81.88300698
166.53229998,47.95454091,56.38918980,30.15552885,-1.16420534,1.14636773,-2.08254529

>  <Name>
ligand

>  <RI>
0

>  <Rbt.Current_Directory>
/home/itssahil/PROJECTS/Mol_Feturizer/New_Systems/rnas/3GX2

>  <Rbt.Executable>
rbdock ($Id: //depot/dev/client3/rdock/2013.1/src/exe/rbdock.cxx#4 $)

>  <Rbt.Library>
libRbt.so (2013.1, Build901 2013/11/27)

>  <Rbt.Parameter_File>
/export/apps/rDock/src/rDock_2013.1_src/data/scripts/dock_solv.prm

>  <Rbt.Receptor>
prm/pocket_docking_4.prm

>  <SCORE>
-8.36087

>  <SCORE.INTER>
-6.23489

>  <SCORE.INTER.CONST>
1

>  <SCORE.INTER.POLAR>
0

>  <SCORE.INTER.ROT>
7

>  <SCORE.INTER.SOLV>
14.8328

>  <SCORE.INTER.VDW>
-17.3675

>  <SCORE.INTER.norm>
-0.230922

>  <SCORE.INTRA>
-2.12599

>  <SCORE.INTRA.DIHEDRAL>
-6.77367

>  <SCORE.INTRA.DIHEDRAL.0>
13.9704

>  <SCORE.INTRA.POLAR>
0

>  <SCORE.INTRA.POLAR.0>
0

>  <SCORE.INTRA.REPUL>
0

>  <SCORE.INTRA.REPUL.0>
0

>  <SCORE.INTRA.SOLV>
1.7657

>  <SCORE.INTRA.SOLV.lig_0>
-70.9758

>  <SCORE.INTRA.VDW>
0.377993

>  <SCORE.INTRA.VDW.0>
-2.70686

>  <SCORE.INTRA.norm>
-0.0787403

>  <SCORE.RESTR>
0

>  <SCORE.RESTR.CAVITY>
0

>  <SCORE.RESTR.norm>
0

>  <SCORE.SYSTEM>
0

>  <SCORE.SYSTEM.CONST>
0

>  <SCORE.SYSTEM.DIHEDRAL>
0

>  <SCORE.SYSTEM.SOLV>
0

>  <SCORE.SYSTEM.norm>
0

>  <SCORE.heavy>
27

>  <SCORE.norm>
-0.309662

>  <RMSD>
6.775

$$$$
ligand
 OpenBabel11021811473D
libRbt.so/2013.1/901 2013/11/27
 27 29  0  0  0  0  0  0  0  0999 V2000
   46.9338   54.8609   35.1376 N   0  0  0  0  0  0  0  0  0  0  0  0
   47.9247   54.8578   34.0638 C   0  0  2  0  0  0  0  0  0  0  0  0
   49.1091   53.9217   34.3129 C   0  0  0  0  0  0  0  0  0  0  0  0
   49.2272   52.9584   33.6310 O   0  0  0  0  0  0  0  0  0  0  0  0
   48.3561   56.2591   33.5828 C   0  0  0  0  0  0  0  0  0  0  0  0
   47.2713   57.2914   33.1673 C   0  0  0  0  0  0  0  0  0  0  0  0
   47.7973   58.5892   32.4982 C   0  0  2  0  0  0  0  0  0  0  0  0
   48.8380   59.2530   33.2833 N   0  0  0  0  0  0  0  0  0  0  0  0
   46.6395   59.5477   32.0811 C   0  0  0  0  0  0  0  0  0  0  0  0
   45.7460   59.1530   30.8571 C   0  0  1  0  0  0  0  0  0  0  0  0
   46.2541   59.3715   29.5076 O   0  0  0  0  0  0  0  0  0  0  0  0
   45.1900   57.7017   30.8334 C   0  0  1  0  0  0  0  0  0  0  0  0
   44.2366   57.3338   31.8388 O   0  0  0  0  0  0  0  0  0  0  0  0
   44.8672   57.4124   29.3346 C   0  0  1  0  0  0  0  0  0  0  0  0
   43.5150   57.3149   28.9563 O   0  0  0  0  0  0  0  0  0  0  0  0
   45.7721   58.4040   28.5967 C   0  0  2  0  0  0  0  0  0  0  0  0
   50.2463   54.4379   34.9655 O   0  0  0  0  0  0  0  0  0  0  0  0
   47.3513   54.0816   25.7140 N   0  0  0  0  0  0  0  0  0  0  0  0
   46.0771   54.3401   26.2322 C   0  0  0  0  0  0  0  0  0  0  0  0
   45.8304   55.5644   26.9907 N   0  0  0  0  0  0  0  0  0  0  0  0
   46.8440   56.4622   27.1946 C   0  0  0  0  0  0  0  0  0  0  0  0
   48.1238   56.1935   26.6712 C   0  0  0  0  0  0  0  0  0  0  0  0
   48.3692   54.9728   25.9161 C   0  0  0  0  0  0  0  0  0  0  0  0
   49.6979   54.6923   25.3708 N   0  0  0  0  0  0  0  0  0  0  0  0
   48.9906   57.2892   27.0305 N   0  0  0  0  0  0  0  0  0  0  0  0
   48.2257   58.2174   27.7754 C   0  0  0  0  0  0  0  0  0  0  0  0
   46.8936   57.7242   27.8861 N   0  0  0  0  0  0  0  0  0  0  0  0
  2  1  1  1  0  0  0
  2  3  1  0  0  0  0
  2  5  1  0  0  0  0
  3  4  1  0  0  0  0
  3 17  1  0  0  0  0
  5  6  1  0  0  0  0
  7  6  1  1  0  0  0
  7  8  1  0  0  0  0
  7  9  1  0  0  0  0
 10  9  1  1  0  0  0
 10 11  1  0  0  0  0
 10 12  1  0  0  0  0
 11 16  1  0  0  0  0
 12 13  1  1  0  0  0
 12 14  1  0  0  0  0
 14 15  1  1  0  0  0
 14 16  1  0  0  0  0
 16 27  1  1  0  0  0
 18 19  2  0  0  0  0
 18 23  1  0  0  0  0
 19 20  1  0  0  0  0
 20 21  2  0  0  0  0
 21 22  1  0  0  0  0
 21 27  1  0  0  0  0
 22 23  2  0  0  0  0
 22 25  1  0  0  0  0
 23 24  1  0  0  0  0
 25 26  2  0  0  0  0
 26 27  1  0  0  0  0
M  END
>  <CHROM.1>
111.71001781,-52.39839885,-171.12412642,-52.28505131,-72.28679363,-78.61412776
160.83872744,47.18560370,56.59681655,30.23682818,-1.31653922,0.91573373,-1.71544170

>  <Name>
ligand

>  <RI>
0

>  <Rbt.Current_Directory>
/home/itssahil/PROJECTS/Mol_Feturizer/New_Systems/rnas/3GX2

>  <Rbt.Executable>
rbdock ($Id: //depot/dev/client3/rdock/2013.1/src/exe/rbdock.cxx#4 $)

>  <Rbt.Library>
libRbt.so (2013.1, Build901 2013/11/27)

>  <Rbt.Parameter_File>
/export/apps/rDock/src/rDock_2013.1_src/data/scripts/dock_solv.prm

>  <Rbt.Receptor>
prm/pocket_docking_4.prm

>  <SCORE>
-10.1858

>  <SCORE.INTER>
-7.36335

>  <SCORE.INTER.CONST>
1

>  <SCORE.INTER.POLAR>
0

>  <SCORE.INTER.ROT>
7

>  <SCORE.INTER.SOLV>
18.5127

>  <SCORE.INTER.VDW>
-19.3465

>  <SCORE.INTER.norm>
-0.272717

>  <SCORE.INTRA>
-2.82246

>  <SCORE.INTRA.DIHEDRAL>
-6.95329

>  <SCORE.INTRA.DIHEDRAL.0>
13.9704

>  <SCORE.INTRA.POLAR>
0

>  <SCORE.INTRA.POLAR.0>
0

>  <SCORE.INTRA.REPUL>
0

>  <SCORE.INTRA.REPUL.0>
0

>  <SCORE.INTRA.SOLV>
0.305736

>  <SCORE.INTRA.SOLV.lig_0>
-70.9758

>  <SCORE.INTRA.VDW>
0.501319

>  <SCORE.INTRA.VDW.0>
-2.70686

>  <SCORE.INTRA.norm>
-0.104535

>  <SCORE.RESTR>
0

>  <SCORE.RESTR.CAVITY>
0

>  <SCORE.RESTR.norm>
0

>  <SCORE.SYSTEM>
0

>  <SCORE.SYSTEM.CONST>
0

>  <SCORE.SYSTEM.DIHEDRAL>
0

>  <SCORE.SYSTEM.SOLV>
0

>  <SCORE.SYSTEM.norm>
0

>  <SCORE.heavy>
27

>  <SCORE.norm>
-0.377252

>  <RMSD>
6.793

$$$$
ligand
 OpenBabel11021811473D
libRbt.so/2013.1/901 2013/11/27
 27 29  0  0  0  0  0  0  0  0999 V2000
   49.8737   59.9789   32.1532 N   0  0  0  0  0  0  0  0  0  0  0  0
   48.7095   59.2584   32.6637 C   0  0  2  0  0  0  0  0  0  0  0  0
   49.0093   57.8239   33.1038 C   0  0  0  0  0  0  0  0  0  0  0  0
   48.5550   57.4355   34.1282 O   0  0  0  0  0  0  0  0  0  0  0  0
   47.4488   59.3657   31.7804 C   0  0  0  0  0  0  0  0  0  0  0  0
   46.1138   58.7435   32.2762 C   0  0  0  0  0  0  0  0  0  0  0  0
   46.0445   57.1933   32.2560 C   0  0  2  0  0  0  0  0  0  0  0  0
   45.9358   56.6458   30.9038 N   0  0  0  0  0  0  0  0  0  0  0  0
   44.9592   56.6395   33.2300 C   0  0  0  0  0  0  0  0  0  0  0  0
   44.8224   55.0881   33.3934 C   0  0  1  0  0  0  0  0  0  0  0  0
   45.9634   54.3225   33.8825 O   0  0  0  0  0  0  0  0  0  0  0  0
   43.6201   54.5743   34.2337 C   0  0  1  0  0  0  0  0  0  0  0  0
   42.3010   54.7864   33.7138 O   0  0  0  0  0  0  0  0  0  0  0  0
   44.0325   53.1457   34.7061 C   0  0  1  0  0  0  0  0  0  0  0  0
   43.3606   52.0438   34.1447 O   0  0  0  0  0  0  0  0  0  0  0  0
   45.5620   53.1946   34.6340 C   0  0  2  0  0  0  0  0  0  0  0  0
   49.3746   56.8831   32.1204 O   0  0  0  0  0  0  0  0  0  0  0  0
   44.8890   54.1021   39.9454 N   0  0  0  0  0  0  0  0  0  0  0  0
   43.9353   54.2406   38.9304 C   0  0  0  0  0  0  0  0  0  0  0  0
   44.2950   53.9513   37.5441 N   0  0  0  0  0  0  0  0  0  0  0  0
   45.5649   53.5426   37.2349 C   0  0  0  0  0  0  0  0  0  0  0  0
   46.5191   53.4076   38.2621 C   0  0  0  0  0  0  0  0  0  0  0  0
   46.1602   53.6968   39.6434 C   0  0  0  0  0  0  0  0  0  0  0  0
   47.1499   53.5562   40.7120 N   0  0  0  0  0  0  0  0  0  0  0  0
   47.7573   52.9706   37.6646 N   0  0  0  0  0  0  0  0  0  0  0  0
   47.5433   52.8460   36.2717 C   0  0  0  0  0  0  0  0  0  0  0  0
   46.1915   53.1938   35.9862 N   0  0  0  0  0  0  0  0  0  0  0  0
  2  1  1  6  0  0  0
  2  3  1  0  0  0  0
  2  5  1  0  0  0  0
  3  4  1  0  0  0  0
  3 17  1  0  0  0  0
  5  6  1  0  0  0  0
  7  6  1  6  0  0  0
  7  8  1  0  0  0  0
  7  9  1  0  0  0  0
 10  9  1  1  0  0  0
 10 11  1  0  0  0  0
 10 12  1  0  0  0  0
 11 16  1  0  0  0  0
 12 13  1  6  0  0  0
 12 14  1  0  0  0  0
 14 15  1  6  0  0  0
 14 16  1  0  0  0  0
 16 27  1  1  0  0  0
 18 19  2  0  0  0  0
 18 23  1  0  0  0  0
 19 20  1  0  0  0  0
 20 21  2  0  0  0  0
 21 22  1  0  0  0  0
 21 27  1  0  0  0  0
 22 23  2  0  0  0  0
 22 25  1  0  0  0  0
 23 24  1  0  0  0  0
 25 26  2  0  0  0  0
 26 27  1  0  0  0  0
M  END
>  <CHROM.1>
135.66398847,-174.85879910,-72.27947537,-72.44856057,-176.29470160,60.23933882
103.44528725,46.13891514,55.31590889,34.92568232,-1.19878557,0.56156040,2.06754573

>  <Name>
ligand

>  <RI>
0

>  <Rbt.Current_Directory>
/home/itssahil/PROJECTS/Mol_Feturizer/New_Systems/rnas/3GX2

>  <Rbt.Executable>
rbdock ($Id: //depot/dev/client3/rdock/2013.1/src/exe/rbdock.cxx#4 $)

>  <Rbt.Library>
libRbt.so (2013.1, Build901 2013/11/27)

>  <Rbt.Parameter_File>
/export/apps/rDock/src/rDock_2013.1_src/data/scripts/dock_solv.prm

>  <Rbt.Receptor>
prm/pocket_docking_7.prm

>  <SCORE>
-14.096

>  <SCORE.INTER>
-11.1318

>  <SCORE.INTER.CONST>
1

>  <SCORE.INTER.POLAR>
0

>  <SCORE.INTER.ROT>
7

>  <SCORE.INTER.SOLV>
14.6198

>  <SCORE.INTER.VDW>
-20.5611

>  <SCORE.INTER.norm>
-0.412288

>  <SCORE.INTRA>
-2.9739

>  <SCORE.INTRA.DIHEDRAL>
-7.72324

>  <SCORE.INTRA.DIHEDRAL.0>
13.9704

>  <SCORE.INTRA.POLAR>
0

>  <SCORE.INTRA.POLAR.0>
0

>  <SCORE.INTRA.REPUL>
0

>  <SCORE.INTRA.REPUL.0>
0

>  <SCORE.INTRA.SOLV>
2.2672

>  <SCORE.INTRA.SOLV.lig_0>
-70.9758

>  <SCORE.INTRA.VDW>
-0.245882

>  <SCORE.INTRA.VDW.0>
-2.70686

>  <SCORE.INTRA.norm>
-0.110145

>  <SCORE.RESTR>
0.00970368

>  <SCORE.RESTR.CAVITY>
0.00970368

>  <SCORE.RESTR.norm>
0.000359396

>  <SCORE.SYSTEM>
0

>  <SCORE.SYSTEM.CONST>
0

>  <SCORE.SYSTEM.DIHEDRAL>
0

>  <SCORE.SYSTEM.SOLV>
0

>  <SCORE.SYSTEM.norm>
0

>  <SCORE.heavy>
27

>  <SCORE.norm>
-0.522073

>  <RMSD>
6.802

$$$$
ligand
 OpenBabel11021811473D
libRbt.so/2013.1/901 2013/11/27
 27 29  0  0  0  0  0  0  0  0999 V2000
   46.0975   53.5407   36.7586 N   0  0  0  0  0  0  0  0  0  0  0  0
   47.4003   53.7003   36.1167 C   0  0  2  0  0  0  0  0  0  0  0  0
   48.5328   54.0476   37.0853 C   0  0  0  0  0  0  0  0  0  0  0  0
   48.8887   53.2265   37.8637 O   0  0  0  0  0  0  0  0  0  0  0  0
   47.3916   54.5913   34.8569 C   0  0  0  0  0  0  0  0  0  0  0  0
   48.5338   54.4487   33.8127 C   0  0  0  0  0  0  0  0  0  0  0  0
   48.5658   55.5277   32.6977 C   0  0  2  0  0  0  0  0  0  0  0  0
   49.4364   55.1651   31.5794 N   0  0  0  0  0  0  0  0  0  0  0  0
   48.8572   56.9515   33.2642 C   0  0  0  0  0  0  0  0  0  0  0  0
   48.6265   58.1888   32.3325 C   0  0  1  0  0  0  0  0  0  0  0  0
   49.4519   58.3433   31.1400 O   0  0  0  0  0  0  0  0  0  0  0  0
   47.1742   58.4309   31.8343 C   0  0  1  0  0  0  0  0  0  0  0  0
   46.1842   58.7900   32.8070 O   0  0  0  0  0  0  0  0  0  0  0  0
   47.3235   59.2951   30.5440 C   0  0  1  0  0  0  0  0  0  0  0  0
   46.9083   60.6389   30.5963 O   0  0  0  0  0  0  0  0  0  0  0  0
   48.7521   58.9795   30.0896 C   0  0  2  0  0  0  0  0  0  0  0  0
   49.4205   55.0845   36.7352 O   0  0  0  0  0  0  0  0  0  0  0  0
   50.8732   54.6731   27.5514 N   0  0  0  0  0  0  0  0  0  0  0  0
   51.1582   55.1244   28.8452 C   0  0  0  0  0  0  0  0  0  0  0  0
   50.4877   56.3119   29.3700 N   0  0  0  0  0  0  0  0  0  0  0  0
   49.5782   56.9846   28.5985 C   0  0  0  0  0  0  0  0  0  0  0  0
   49.2985   56.5247   27.2968 C   0  0  0  0  0  0  0  0  0  0  0  0
   49.9677   55.3417   26.7741 C   0  0  0  0  0  0  0  0  0  0  0  0
   49.6778   54.8618   25.4224 N   0  0  0  0  0  0  0  0  0  0  0  0
   48.3186   57.4082   26.7136 N   0  0  0  0  0  0  0  0  0  0  0  0
   48.0121   58.4038   27.6709 C   0  0  0  0  0  0  0  0  0  0  0  0
   48.7803   58.1576   28.8452 N   0  0  0  0  0  0  0  0  0  0  0  0
  2  1  1  1  0  0  0
  2  3  1  0  0  0  0
  2  5  1  0  0  0  0
  3  4  1  0  0  0  0
  3 17  1  0  0  0  0
  5  6  1  0  0  0  0
  7  6  1  1  0  0  0
  7  8  1  0  0  0  0
  7  9  1  0  0  0  0
 10  9  1  6  0  0  0
 10 11  1  0  0  0  0
 10 12  1  0  0  0  0
 11 16  1  0  0  0  0
 12 13  1  1  0  0  0
 12 14  1  0  0  0  0
 14 15  1  1  0  0  0
 14 16  1  0  0  0  0
 16 27  1  6  0  0  0
 18 19  2  0  0  0  0
 18 23  1  0  0  0  0
 19 20  1  0  0  0  0
 20 21  2  0  0  0  0
 21 22  1  0  0  0  0
 21 27  1  0  0  0  0
 22 23  2  0  0  0  0
 22 25  1  0  0  0  0
 23 24  1  0  0  0  0
 25 26  2  0  0  0  0
 26 27  1  0  0  0  0
M  END
>  <CHROM.1>
68.65150563,-158.32216853,-170.84627206,-165.89203806,-167.23544433,-64.78299944
-10.24005127,48.62813845,56.40856104,31.50979844,-1.84937681,1.07119043,-1.02315679

>  <Name>
ligand

>  <RI>
0

>  <Rbt.Current_Directory>
/home/itssahil/PROJECTS/Mol_Feturizer/New_Systems/rnas/3GX2

>  <Rbt.Executable>
rbdock ($Id: //depot/dev/client3/rdock/2013.1/src/exe/rbdock.cxx#4 $)

>  <Rbt.Library>
libRbt.so (2013.1, Build901 2013/11/27)

>  <Rbt.Parameter_File>
/export/apps/rDock/src/rDock_2013.1_src/data/scripts/dock_solv.prm

>  <Rbt.Receptor>
prm/pocket_docking_5.prm

>  <SCORE>
-12.8725

>  <SCORE.INTER>
-11.1473

>  <SCORE.INTER.CONST>
1

>  <SCORE.INTER.POLAR>
0

>  <SCORE.INTER.ROT>
7

>  <SCORE.INTER.SOLV>
14.6668

>  <SCORE.INTER.VDW>
-20.5871

>  <SCORE.INTER.norm>
-0.412861

>  <SCORE.INTRA>
-1.72523

>  <SCORE.INTRA.DIHEDRAL>
-6.54264

>  <SCORE.INTRA.DIHEDRAL.0>
13.9704

>  <SCORE.INTRA.POLAR>
0

>  <SCORE.INTRA.POLAR.0>
0

>  <SCORE.INTRA.REPUL>
0

>  <SCORE.INTRA.REPUL.0>
0

>  <SCORE.INTRA.SOLV>
2.47825

>  <SCORE.INTRA.SOLV.lig_0>
-70.9758

>  <SCORE.INTRA.VDW>
0.306964

>  <SCORE.INTRA.VDW.0>
-2.70686

>  <SCORE.INTRA.norm>
-0.0638976

>  <SCORE.RESTR>
0

>  <SCORE.RESTR.CAVITY>
0

>  <SCORE.RESTR.norm>
0

>  <SCORE.SYSTEM>
0

>  <SCORE.SYSTEM.CONST>
0

>  <SCORE.SYSTEM.DIHEDRAL>
0

>  <SCORE.SYSTEM.SOLV>
0

>  <SCORE.SYSTEM.norm>
0

>  <SCORE.heavy>
27

>  <SCORE.norm>
-0.476759

>  <RMSD>
6.803

$$$$
ligand
 OpenBabel11021811473D
libRbt.so/2013.1/901 2013/11/27
 27 29  0  0  0  0  0  0  0  0999 V2000
   42.1470   54.6488   31.7329 N   0  0  0  0  0  0  0  0  0  0  0  0
   43.2346   53.6739   31.6923 C   0  0  2  0  0  0  0  0  0  0  0  0
   43.5557   53.1582   30.2880 C   0  0  0  0  0  0  0  0  0  0  0  0
   42.6678   53.0261   29.5126 O   0  0  0  0  0  0  0  0  0  0  0  0
   43.1248   52.5440   32.7376 C   0  0  0  0  0  0  0  0  0  0  0  0
   43.4790   52.8396   34.2216 C   0  0  0  0  0  0  0  0  0  0  0  0
   44.9845   53.0665   34.5226 C   0  0  2  0  0  0  0  0  0  0  0  0
   45.2653   53.2020   35.9518 N   0  0  0  0  0  0  0  0  0  0  0  0
   45.5882   54.2229   33.6674 C   0  0  0  0  0  0  0  0  0  0  0  0
   47.1429   54.2902   33.4916 C   0  0  1  0  0  0  0  0  0  0  0  0
   47.8411   53.1508   32.9073 O   0  0  0  0  0  0  0  0  0  0  0  0
   47.7109   55.5239   32.7359 C   0  0  1  0  0  0  0  0  0  0  0  0
   47.5751   56.8093   33.3559 O   0  0  0  0  0  0  0  0  0  0  0  0
   49.1102   55.0739   32.2128 C   0  0  1  0  0  0  0  0  0  0  0  0
   50.2524   55.6430   32.8063 O   0  0  0  0  0  0  0  0  0  0  0  0
   48.9805   53.5481   32.1712 C   0  0  2  0  0  0  0  0  0  0  0  0
   44.8685   53.3139   29.8002 O   0  0  0  0  0  0  0  0  0  0  0  0
   51.5810   53.0374   27.4316 N   0  0  0  0  0  0  0  0  0  0  0  0
   52.0432   53.6674   28.5928 C   0  0  0  0  0  0  0  0  0  0  0  0
   51.2013   53.7107   29.7862 N   0  0  0  0  0  0  0  0  0  0  0  0
   49.9594   53.1339   29.7721 C   0  0  0  0  0  0  0  0  0  0  0  0
   49.5011   52.5035   28.5988 C   0  0  0  0  0  0  0  0  0  0  0  0
   50.3405   52.4614   27.4095 C   0  0  0  0  0  0  0  0  0  0  0  0
   49.8665   51.8061   26.1899 N   0  0  0  0  0  0  0  0  0  0  0  0
   48.1785   51.9891   28.8575 N   0  0  0  0  0  0  0  0  0  0  0  0
   47.8424   52.3159   30.1923 C   0  0  0  0  0  0  0  0  0  0  0  0
   48.9330   53.0231   30.7759 N   0  0  0  0  0  0  0  0  0  0  0  0
  2  1  1  6  0  0  0
  2  3  1  0  0  0  0
  2  5  1  0  0  0  0
  3  4  1  0  0  0  0
  3 17  1  0  0  0  0
  5  6  1  0  0  0  0
  7  6  1  1  0  0  0
  7  8  1  0  0  0  0
  7  9  1  0  0  0  0
 10  9  1  6  0  0  0
 10 11  1  0  0  0  0
 10 12  1  0  0  0  0
 11 16  1  0  0  0  0
 12 13  1  1  0  0  0
 12 14  1  0  0  0  0
 14 15  1  1  0  0  0
 14 16  1  0  0  0  0
 16 27  1  6  0  0  0
 18 19  2  0  0  0  0
 18 23  1  0  0  0  0
 19 20  1  0  0  0  0
 20 21  2  0  0  0  0
 21 22  1  0  0  0  0
 21 27  1  0  0  0  0
 22 23  2  0  0  0  0
 22 25  1  0  0  0  0
 23 24  1  0  0  0  0
 25 26  2  0  0  0  0
 26 27  1  0  0  0  0
M  END
>  <CHROM.1>
-34.54476836,-76.22285063,-70.79873209,-174.07437114,-160.57197238,58.00198202
-174.81434616,47.22317672,53.56529957,31.21426666,2.57551897,0.16048982,1.19925223

>  <Name>
ligand

>  <RI>
0

>  <Rbt.Current_Directory>
/home/itssahil/PROJECTS/Mol_Feturizer/New_Systems/rnas/3GX2

>  <Rbt.Executable>
rbdock ($Id: //depot/dev/client3/rdock/2013.1/src/exe/rbdock.cxx#4 $)

>  <Rbt.Library>
libRbt.so (2013.1, Build901 2013/11/27)

>  <Rbt.Parameter_File>
/export/apps/rDock/src/rDock_2013.1_src/data/scripts/dock_solv.prm

>  <Rbt.Receptor>
prm/pocket_docking_6.prm

>  <SCORE>
-10.2926

>  <SCORE.INTER>
-7.48979

>  <SCORE.INTER.CONST>
1

>  <SCORE.INTER.POLAR>
0

>  <SCORE.INTER.ROT>
7

>  <SCORE.INTER.SOLV>
11.5585

>  <SCORE.INTER.VDW>
-17.1127

>  <SCORE.INTER.norm>
-0.277399

>  <SCORE.INTRA>
-2.80459

>  <SCORE.INTRA.DIHEDRAL>
-6.73892

>  <SCORE.INTRA.DIHEDRAL.0>
13.9704

>  <SCORE.INTRA.POLAR>
0

>  <SCORE.INTRA.POLAR.0>
0

>  <SCORE.INTRA.REPUL>
0

>  <SCORE.INTRA.REPUL.0>
0

>  <SCORE.INTRA.SOLV>
0.897246

>  <SCORE.INTRA.SOLV.lig_0>
-70.9758

>  <SCORE.INTRA.VDW>
0.116249

>  <SCORE.INTRA.VDW.0>
-2.70686

>  <SCORE.INTRA.norm>
-0.103874

>  <SCORE.RESTR>
0.00178824

>  <SCORE.RESTR.CAVITY>
0.00178824

>  <SCORE.RESTR.norm>
6.62311e-05

>  <SCORE.SYSTEM>
0

>  <SCORE.SYSTEM.CONST>
0

>  <SCORE.SYSTEM.DIHEDRAL>
0

>  <SCORE.SYSTEM.SOLV>
0

>  <SCORE.SYSTEM.norm>
0

>  <SCORE.heavy>
27

>  <SCORE.norm>
-0.381207

>  <RMSD>
6.808

$$$$
ligand
 OpenBabel11021811473D
libRbt.so/2013.1/901 2013/11/27
 27 29  0  0  0  0  0  0  0  0999 V2000
   48.5298   54.2511   32.9315 N   0  0  0  0  0  0  0  0  0  0  0  0
   49.3454   54.9741   33.9047 C   0  0  2  0  0  0  0  0  0  0  0  0
   48.7925   54.9355   35.3309 C   0  0  0  0  0  0  0  0  0  0  0  0
   47.6171   54.8992   35.4855 O   0  0  0  0  0  0  0  0  0  0  0  0
   49.7703   56.3900   33.4622 C   0  0  0  0  0  0  0  0  0  0  0  0
   48.6809   57.4655   33.1944 C   0  0  0  0  0  0  0  0  0  0  0  0
   49.2052   58.8707   32.7957 C   0  0  2  0  0  0  0  0  0  0  0  0
   50.0721   59.4648   33.8133 N   0  0  0  0  0  0  0  0  0  0  0  0
   48.0550   59.8210   32.3403 C   0  0  0  0  0  0  0  0  0  0  0  0
   47.2981   59.4944   31.0088 C   0  0  1  0  0  0  0  0  0  0  0  0
   48.0598   59.3707   29.7712 O   0  0  0  0  0  0  0  0  0  0  0  0
   46.3666   58.2502   31.0183 C   0  0  1  0  0  0  0  0  0  0  0  0
   45.1977   58.2956   31.8471 O   0  0  0  0  0  0  0  0  0  0  0  0
   46.2236   57.8354   29.5212 C   0  0  1  0  0  0  0  0  0  0  0  0
   44.9794   58.0369   28.8949 O   0  0  0  0  0  0  0  0  0  0  0  0
   47.4793   58.4374   28.8826 C   0  0  2  0  0  0  0  0  0  0  0  0
   49.6300   54.4666   36.3625 O   0  0  0  0  0  0  0  0  0  0  0  0
   49.2245   55.1467   24.9313 N   0  0  0  0  0  0  0  0  0  0  0  0
   48.1628   56.0567   24.8745 C   0  0  0  0  0  0  0  0  0  0  0  0
   47.8306   56.8674   26.0439 N   0  0  0  0  0  0  0  0  0  0  0  0
   48.5581   56.7400   27.1971 C   0  0  0  0  0  0  0  0  0  0  0  0
   49.6239   55.8204   27.2464 C   0  0  0  0  0  0  0  0  0  0  0  0
   49.9538   55.0123   26.0808 C   0  0  0  0  0  0  0  0  0  0  0  0
   51.0613   54.0571   26.1299 N   0  0  0  0  0  0  0  0  0  0  0  0
   50.2097   55.8885   28.5629 N   0  0  0  0  0  0  0  0  0  0  0  0
   49.4887   56.8523   29.3063 C   0  0  0  0  0  0  0  0  0  0  0  0
   48.4633   57.3922   28.4773 N   0  0  0  0  0  0  0  0  0  0  0  0
  2  1  1  6  0  0  0
  2  3  1  0  0  0  0
  2  5  1  0  0  0  0
  3  4  1  0  0  0  0
  3 17  1  0  0  0  0
  5  6  1  0  0  0  0
  7  6  1  1  0  0  0
  7  8  1  0  0  0  0
  7  9  1  0  0  0  0
 10  9  1  1  0  0  0
 10 11  1  0  0  0  0
 10 12  1  0  0  0  0
 11 16  1  0  0  0  0
 12 13  1  6  0  0  0
 12 14  1  0  0  0  0
 14 15  1  6  0  0  0
 14 16  1  0  0  0  0
 16 27  1  1  0  0  0
 18 19  2  0  0  0  0
 18 23  1  0  0  0  0
 19 20  1  0  0  0  0
 20 21  2  0  0  0  0
 21 22  1  0  0  0  0
 21 27  1  0  0  0  0
 22 23  2  0  0  0  0
 22 25  1  0  0  0  0
 23 24  1  0  0  0  0
 25 26  2  0  0  0  0
 26 27  1  0  0  0  0
M  END
>  <CHROM.1>
-32.36148879,62.26409190,178.22087427,-59.33577772,-67.29745563,-56.69785036
-145.44007101,48.39634179,56.86729884,30.47106830,-1.60020836,0.95346972
-1.56764259

>  <Name>
ligand

>  <RI>
0

>  <Rbt.Current_Directory>
/home/itssahil/PROJECTS/Mol_Feturizer/New_Systems/rnas/3GX2

>  <Rbt.Executable>
rbdock ($Id: //depot/dev/client3/rdock/2013.1/src/exe/rbdock.cxx#4 $)

>  <Rbt.Library>
libRbt.so (2013.1, Build901 2013/11/27)

>  <Rbt.Parameter_File>
/export/apps/rDock/src/rDock_2013.1_src/data/scripts/dock_solv.prm

>  <Rbt.Receptor>
prm/pocket_docking_7.prm

>  <SCORE>
-14.9028

>  <SCORE.INTER>
-10.0339

>  <SCORE.INTER.CONST>
1

>  <SCORE.INTER.POLAR>
0

>  <SCORE.INTER.ROT>
7

>  <SCORE.INTER.SOLV>
17.8781

>  <SCORE.INTER.VDW>
-20.9153

>  <SCORE.INTER.norm>
-0.371625

>  <SCORE.INTRA>
-4.86893

>  <SCORE.INTRA.DIHEDRAL>
-9.34883

>  <SCORE.INTRA.DIHEDRAL.0>
13.9704

>  <SCORE.INTRA.POLAR>
0

>  <SCORE.INTRA.POLAR.0>
0

>  <SCORE.INTRA.REPUL>
0

>  <SCORE.INTRA.REPUL.0>
0

>  <SCORE.INTRA.SOLV>
0.356141

>  <SCORE.INTRA.SOLV.lig_0>
-70.9758

>  <SCORE.INTRA.VDW>
-0.372587

>  <SCORE.INTRA.VDW.0>
-2.70686

>  <SCORE.INTRA.norm>
-0.180331

>  <SCORE.RESTR>
0

>  <SCORE.RESTR.CAVITY>
0

>  <SCORE.RESTR.norm>
0

>  <SCORE.SYSTEM>
0

>  <SCORE.SYSTEM.CONST>
0

>  <SCORE.SYSTEM.DIHEDRAL>
0

>  <SCORE.SYSTEM.SOLV>
0

>  <SCORE.SYSTEM.norm>
0

>  <SCORE.heavy>
27

>  <SCORE.norm>
-0.551956

>  <RMSD>
6.828

$$$$
ligand
 OpenBabel11021811473D
libRbt.so/2013.1/901 2013/11/27
 27 29  0  0  0  0  0  0  0  0999 V2000
   46.5158   53.2673   35.3799 N   0  0  0  0  0  0  0  0  0  0  0  0
   47.9410   53.2673   35.7021 C   0  0  2  0  0  0  0  0  0  0  0  0
   48.2448   53.5218   37.1800 C   0  0  0  0  0  0  0  0  0  0  0  0
   48.0593   52.6466   37.9587 O   0  0  0  0  0  0  0  0  0  0  0  0
   48.8147   54.1148   34.7537 C   0  0  0  0  0  0  0  0  0  0  0  0
   48.6962   55.6640   34.7863 C   0  0  0  0  0  0  0  0  0  0  0  0
   49.3563   56.4153   33.5996 C   0  0  2  0  0  0  0  0  0  0  0  0
   50.7388   56.0008   33.3616 N   0  0  0  0  0  0  0  0  0  0  0  0
   49.1922   57.9621   33.7174 C   0  0  0  0  0  0  0  0  0  0  0  0
   48.6271   58.7501   32.4878 C   0  0  1  0  0  0  0  0  0  0  0  0
   49.4372   58.8568   31.2797 O   0  0  0  0  0  0  0  0  0  0  0  0
   47.2187   58.3366   31.9765 C   0  0  1  0  0  0  0  0  0  0  0  0
   46.0972   58.5777   32.8364 O   0  0  0  0  0  0  0  0  0  0  0  0
   47.1623   58.8242   30.4956 C   0  0  1  0  0  0  0  0  0  0  0  0
   46.3160   59.9057   30.1872 O   0  0  0  0  0  0  0  0  0  0  0  0
   48.6428   58.9105   30.1119 C   0  0  2  0  0  0  0  0  0  0  0  0
   49.1527   54.5473   37.5112 O   0  0  0  0  0  0  0  0  0  0  0  0
   50.6381   53.9065   29.4294 N   0  0  0  0  0  0  0  0  0  0  0  0
   50.4088   54.5741   30.6379 C   0  0  0  0  0  0  0  0  0  0  0  0
   49.8628   55.9295   30.6328 N   0  0  0  0  0  0  0  0  0  0  0  0
   49.5725   56.5486   29.4464 C   0  0  0  0  0  0  0  0  0  0  0  0
   49.8080   55.8703   28.2346 C   0  0  0  0  0  0  0  0  0  0  0  0
   50.3529   54.5199   28.2404 C   0  0  0  0  0  0  0  0  0  0  0  0
   50.5974   53.8133   26.9826 N   0  0  0  0  0  0  0  0  0  0  0  0
   49.4203   56.7431   27.1535 N   0  0  0  0  0  0  0  0  0  0  0  0
   48.9528   57.9515   27.7215 C   0  0  0  0  0  0  0  0  0  0  0  0
   49.0373   57.8499   29.1402 N   0  0  0  0  0  0  0  0  0  0  0  0
  2  1  1  1  0  0  0
  2  3  1  0  0  0  0
  2  5  1  0  0  0  0
  3  4  1  0  0  0  0
  3 17  1  0  0  0  0
  5  6  1  0  0  0  0
  7  6  1  1  0  0  0
  7  8  1  0  0  0  0
  7  9  1  0  0  0  0
 10  9  1  1  0  0  0
 10 11  1  0  0  0  0
 10 12  1  0  0  0  0
 11 16  1  0  0  0  0
 12 13  1  1  0  0  0
 12 14  1  0  0  0  0
 14 15  1  1  0  0  0
 14 16  1  0  0  0  0
 16 27  1  6  0  0  0
 18 19  2  0  0  0  0
 18 23  1  0  0  0  0
 19 20  1  0  0  0  0
 20 21  2  0  0  0  0
 21 22  1  0  0  0  0
 21 27  1  0  0  0  0
 22 23  2  0  0  0  0
 22 25  1  0  0  0  0
 23 24  1  0  0  0  0
 25 26  2  0  0  0  0
 26 27  1  0  0  0  0
M  END
>  <CHROM.1>
75.32293224,69.70491521,-166.64886918,-50.57653227,-128.83759066,-68.52859018
31.03266408,48.80553783,56.21017324,32.00200008,-1.79786817,1.07772716,-0.99111083

>  <Name>
ligand

>  <RI>
0

>  <Rbt.Current_Directory>
/home/itssahil/PROJECTS/Mol_Feturizer/New_Systems/rnas/3GX2

>  <Rbt.Executable>
rbdock ($Id: //depot/dev/client3/rdock/2013.1/src/exe/rbdock.cxx#4 $)

>  <Rbt.Library>
libRbt.so (2013.1, Build901 2013/11/27)

>  <Rbt.Parameter_File>
/export/apps/rDock/src/rDock_2013.1_src/data/scripts/dock_solv.prm

>  <Rbt.Receptor>
prm/pocket_docking_6.prm

>  <SCORE>
-12.7645

>  <SCORE.INTER>
-12.1106

>  <SCORE.INTER.CONST>
1

>  <SCORE.INTER.POLAR>
0

>  <SCORE.INTER.ROT>
7

>  <SCORE.INTER.SOLV>
17.9487

>  <SCORE.INTER.VDW>
-22.3233

>  <SCORE.INTER.norm>
-0.448542

>  <SCORE.INTRA>
-0.653876

>  <SCORE.INTRA.DIHEDRAL>
-2.87383

>  <SCORE.INTRA.DIHEDRAL.0>
13.9704

>  <SCORE.INTRA.POLAR>
0

>  <SCORE.INTRA.POLAR.0>
0

>  <SCORE.INTRA.REPUL>
0

>  <SCORE.INTRA.REPUL.0>
0

>  <SCORE.INTRA.SOLV>
2.10378

>  <SCORE.INTRA.SOLV.lig_0>
-70.9758

>  <SCORE.INTRA.VDW>
-0.268852

>  <SCORE.INTRA.VDW.0>
-2.70686

>  <SCORE.INTRA.norm>
-0.0242176

>  <SCORE.RESTR>
0

>  <SCORE.RESTR.CAVITY>
0

>  <SCORE.RESTR.norm>
0

>  <SCORE.SYSTEM>
0

>  <SCORE.SYSTEM.CONST>
0

>  <SCORE.SYSTEM.DIHEDRAL>
0

>  <SCORE.SYSTEM.SOLV>
0

>  <SCORE.SYSTEM.norm>
0

>  <SCORE.heavy>
27

>  <SCORE.norm>
-0.47276

>  <RMSD>
6.867

$$$$
ligand
 OpenBabel11021811473D
libRbt.so/2013.1/901 2013/11/27
 27 29  0  0  0  0  0  0  0  0999 V2000
   49.3180   55.3428   33.8611 N   0  0  0  0  0  0  0  0  0  0  0  0
   48.0862   54.9789   34.5576 C   0  0  2  0  0  0  0  0  0  0  0  0
   48.1158   53.5843   35.1866 C   0  0  0  0  0  0  0  0  0  0  0  0
   48.3944   52.6564   34.5023 O   0  0  0  0  0  0  0  0  0  0  0  0
   46.7927   55.2526   33.7619 C   0  0  0  0  0  0  0  0  0  0  0  0
   46.3233   56.7186   33.5481 C   0  0  0  0  0  0  0  0  0  0  0  0
   47.2866   57.6224   32.7336 C   0  0  2  0  0  0  0  0  0  0  0  0
   48.5399   57.8976   33.4362 N   0  0  0  0  0  0  0  0  0  0  0  0
   46.5824   58.9118   32.2094 C   0  0  0  0  0  0  0  0  0  0  0  0
   45.7680   58.8291   30.8743 C   0  0  1  0  0  0  0  0  0  0  0  0
   46.4305   59.1578   29.6172 O   0  0  0  0  0  0  0  0  0  0  0  0
   45.0270   57.4936   30.5860 C   0  0  1  0  0  0  0  0  0  0  0  0
   43.9391   57.1325   31.4469 O   0  0  0  0  0  0  0  0  0  0  0  0
   44.8165   57.4686   29.0403 C   0  0  1  0  0  0  0  0  0  0  0  0
   43.5071   57.6256   28.5486 O   0  0  0  0  0  0  0  0  0  0  0  0
   45.9144   58.4097   28.5347 C   0  0  2  0  0  0  0  0  0  0  0  0
   48.2950   53.4809   36.5805 O   0  0  0  0  0  0  0  0  0  0  0  0
   47.2981   53.9695   25.7316 N   0  0  0  0  0  0  0  0  0  0  0  0
   46.0446   54.2791   26.2718 C   0  0  0  0  0  0  0  0  0  0  0  0
   45.8517   55.5293   27.0032 N   0  0  0  0  0  0  0  0  0  0  0  0
   46.8957   56.4014   27.1602 C   0  0  0  0  0  0  0  0  0  0  0  0
   48.1544   56.0813   26.6150 C   0  0  0  0  0  0  0  0  0  0  0  0
   48.3461   54.8348   25.8869 C   0  0  0  0  0  0  0  0  0  0  0  0
   49.6528   54.5010   25.3190 N   0  0  0  0  0  0  0  0  0  0  0  0
   49.0610   57.1595   26.9254 N   0  0  0  0  0  0  0  0  0  0  0  0
   48.3414   58.1290   27.6628 C   0  0  0  0  0  0  0  0  0  0  0  0
   46.9984   57.6788   27.8169 N   0  0  0  0  0  0  0  0  0  0  0  0
  2  1  1  6  0  0  0
  2  3  1  0  0  0  0
  2  5  1  0  0  0  0
  3  4  1  0  0  0  0
  3 17  1  0  0  0  0
  5  6  1  0  0  0  0
  7  6  1  1  0  0  0
  7  8  1  0  0  0  0
  7  9  1  0  0  0  0
 10  9  1  1  0  0  0
 10 11  1  0  0  0  0
 10 12  1  0  0  0  0
 11 16  1  0  0  0  0
 12 13  1  1  0  0  0
 12 14  1  0  0  0  0
 14 15  1  1  0  0  0
 14 16  1  0  0  0  0
 16 27  1  1  0  0  0
 18 19  2  0  0  0  0
 18 23  1  0  0  0  0
 19 20  1  0  0  0  0
 20 21  2  0  0  0  0
 21 22  1  0  0  0  0
 21 27  1  0  0  0  0
 22 23  2  0  0  0  0
 22 25  1  0  0  0  0
 23 24  1  0  0  0  0
 25 26  2  0  0  0  0
 26 27  1  0  0  0  0
M  END
>  <CHROM.1>
-53.78405324,-71.54142779,62.71423544,-67.59415447,-83.90690174,-92.86859292
147.35788944,47.00124895,56.32919900,30.31984838,-1.42094660,0.93127777,-1.53673519

>  <Name>
ligand

>  <RI>
0

>  <Rbt.Current_Directory>
/home/itssahil/PROJECTS/Mol_Feturizer/New_Systems/rnas/3GX2

>  <Rbt.Executable>
rbdock ($Id: //depot/dev/client3/rdock/2013.1/src/exe/rbdock.cxx#4 $)

>  <Rbt.Library>
libRbt.so (2013.1, Build901 2013/11/27)

>  <Rbt.Parameter_File>
/export/apps/rDock/src/rDock_2013.1_src/data/scripts/dock_solv.prm

>  <Rbt.Receptor>
prm/pocket_docking_5.prm

>  <SCORE>
-8.039

>  <SCORE.INTER>
-8.42835

>  <SCORE.INTER.CONST>
1

>  <SCORE.INTER.POLAR>
0

>  <SCORE.INTER.ROT>
7

>  <SCORE.INTER.SOLV>
14.1632

>  <SCORE.INTER.VDW>
-18.6066

>  <SCORE.INTER.norm>
-0.312161

>  <SCORE.INTRA>
0.389349

>  <SCORE.INTRA.DIHEDRAL>
-3.77406

>  <SCORE.INTRA.DIHEDRAL.0>
13.9704

>  <SCORE.INTRA.POLAR>
0

>  <SCORE.INTRA.POLAR.0>
0

>  <SCORE.INTRA.REPUL>
0

>  <SCORE.INTRA.REPUL.0>
0

>  <SCORE.INTRA.SOLV>
4.3074

>  <SCORE.INTRA.SOLV.lig_0>
-70.9758

>  <SCORE.INTRA.VDW>
0.122678

>  <SCORE.INTRA.VDW.0>
-2.70686

>  <SCORE.INTRA.norm>
0.0144203

>  <SCORE.RESTR>
0

>  <SCORE.RESTR.CAVITY>
0

>  <SCORE.RESTR.norm>
0

>  <SCORE.SYSTEM>
0

>  <SCORE.SYSTEM.CONST>
0

>  <SCORE.SYSTEM.DIHEDRAL>
0

>  <SCORE.SYSTEM.SOLV>
0

>  <SCORE.SYSTEM.norm>
0

>  <SCORE.heavy>
27

>  <SCORE.norm>
-0.297741

>  <RMSD>
6.898

$$$$
ligand
 OpenBabel11021811483D
libRbt.so/2013.1/901 2013/11/27
 27 29  0  0  0  0  0  0  0  0999 V2000
   47.3746   58.4303   31.2283 N   0  0  0  0  0  0  0  0  0  0  0  0
   48.3403   58.0981   32.2733 C   0  0  2  0  0  0  0  0  0  0  0  0
   49.0281   59.3155   32.8946 C   0  0  0  0  0  0  0  0  0  0  0  0
   49.7884   59.1456   33.7890 O   0  0  0  0  0  0  0  0  0  0  0  0
   49.3290   56.9733   31.9011 C   0  0  0  0  0  0  0  0  0  0  0  0
   50.0249   56.1637   33.0305 C   0  0  0  0  0  0  0  0  0  0  0  0
   49.0767   55.4320   34.0174 C   0  0  2  0  0  0  0  0  0  0  0  0
   49.7871   54.8125   35.1361 N   0  0  0  0  0  0  0  0  0  0  0  0
   48.1100   54.4499   33.2865 C   0  0  0  0  0  0  0  0  0  0  0  0
   46.9498   53.7928   34.1078 C   0  0  1  0  0  0  0  0  0  0  0  0
   47.2796   52.9057   35.2175 O   0  0  0  0  0  0  0  0  0  0  0  0
   45.8678   54.7493   34.6826 C   0  0  1  0  0  0  0  0  0  0  0  0
   45.0211   55.4376   33.7528 O   0  0  0  0  0  0  0  0  0  0  0  0
   45.2213   53.9690   35.8689 C   0  0  1  0  0  0  0  0  0  0  0  0
   43.8999   53.5094   35.7161 O   0  0  0  0  0  0  0  0  0  0  0  0
   46.3145   52.9652   36.2485 C   0  0  2  0  0  0  0  0  0  0  0  0
   49.1327   60.4918   32.1258 O   0  0  0  0  0  0  0  0  0  0  0  0
   45.5345   54.5747   41.3757 N   0  0  0  0  0  0  0  0  0  0  0  0
   44.5635   54.3855   40.3857 C   0  0  0  0  0  0  0  0  0  0  0  0
   44.9574   53.9459   39.0490 N   0  0  0  0  0  0  0  0  0  0  0  0
   46.2767   53.7164   38.7624 C   0  0  0  0  0  0  0  0  0  0  0  0
   47.2477   53.9110   39.7640 C   0  0  0  0  0  0  0  0  0  0  0  0
   46.8545   54.3499   41.0956 C   0  0  0  0  0  0  0  0  0  0  0  0
   47.8617   54.5518   42.1378 N   0  0  0  0  0  0  0  0  0  0  0  0
   48.5385   53.6029   39.1983 N   0  0  0  0  0  0  0  0  0  0  0  0
   48.3388   53.2243   37.8499 C   0  0  0  0  0  0  0  0  0  0  0  0
   46.9449   53.2863   37.5616 N   0  0  0  0  0  0  0  0  0  0  0  0
  2  1  1  6  0  0  0
  2  3  1  0  0  0  0
  2  5  1  0  0  0  0
  3  4  1  0  0  0  0
  3 17  1  0  0  0  0
  5  6  1  0  0  0  0
  7  6  1  6  0  0  0
  7  8  1  0  0  0  0
  7  9  1  0  0  0  0
 10  9  1  1  0  0  0
 10 11  1  0  0  0  0
 10 12  1  0  0  0  0
 11 16  1  0  0  0  0
 12 13  1  6  0  0  0
 12 14  1  0  0  0  0
 14 15  1  6  0  0  0
 14 16  1  0  0  0  0
 16 27  1  1  0  0  0
 18 19  2  0  0  0  0
 18 23  1  0  0  0  0
 19 20  1  0  0  0  0
 20 21  2  0  0  0  0
 21 22  1  0  0  0  0
 21 27  1  0  0  0  0
 22 23  2  0  0  0  0
 22 25  1  0  0  0  0
 23 24  1  0  0  0  0
 25 26  2  0  0  0  0
 26 27  1  0  0  0  0
M  END
>  <CHROM.1>
176.98803288,-157.10594359,58.10866096,-173.71958764,-171.07143834,-63.18970188
165.21400801,47.33228662,55.25102048,35.90193822,1.15145846,-0.80265308,-1.36376674

>  <Name>
ligand

>  <RI>
0

>  <Rbt.Current_Directory>
/home/itssahil/PROJECTS/Mol_Feturizer/New_Systems/rnas/3GX2

>  <Rbt.Executable>
rbdock ($Id: //depot/dev/client3/rdock/2013.1/src/exe/rbdock.cxx#4 $)

>  <Rbt.Library>
libRbt.so (2013.1, Build901 2013/11/27)

>  <Rbt.Parameter_File>
/export/apps/rDock/src/rDock_2013.1_src/data/scripts/dock_solv.prm

>  <Rbt.Receptor>
prm/pocket_docking_8.prm

>  <SCORE>
-16.7641

>  <SCORE.INTER>
-14.2547

>  <SCORE.INTER.CONST>
1

>  <SCORE.INTER.POLAR>
0

>  <SCORE.INTER.ROT>
7

>  <SCORE.INTER.SOLV>
16.7181

>  <SCORE.INTER.VDW>
-23.3425

>  <SCORE.INTER.norm>
-0.527952

>  <SCORE.INTRA>
-2.5094

>  <SCORE.INTRA.DIHEDRAL>
-7.46492

>  <SCORE.INTRA.DIHEDRAL.0>
13.9704

>  <SCORE.INTRA.POLAR>
0

>  <SCORE.INTRA.POLAR.0>
0

>  <SCORE.INTRA.REPUL>
0

>  <SCORE.INTRA.REPUL.0>
0

>  <SCORE.INTRA.SOLV>
1.98963

>  <SCORE.INTRA.SOLV.lig_0>
-70.9758

>  <SCORE.INTRA.VDW>
0.228247

>  <SCORE.INTRA.VDW.0>
-2.70686

>  <SCORE.INTRA.norm>
-0.0929406

>  <SCORE.RESTR>
0

>  <SCORE.RESTR.CAVITY>
0

>  <SCORE.RESTR.norm>
0

>  <SCORE.SYSTEM>
0

>  <SCORE.SYSTEM.CONST>
0

>  <SCORE.SYSTEM.DIHEDRAL>
0

>  <SCORE.SYSTEM.SOLV>
0

>  <SCORE.SYSTEM.norm>
0

>  <SCORE.heavy>
27

>  <SCORE.norm>
-0.620893

>  <RMSD>
6.919

$$$$
ligand
 OpenBabel11021811473D
libRbt.so/2013.1/901 2013/11/27
 27 29  0  0  0  0  0  0  0  0999 V2000
   45.4812   52.9552   36.8731 N   0  0  0  0  0  0  0  0  0  0  0  0
   46.8259   53.5007   36.7021 C   0  0  2  0  0  0  0  0  0  0  0  0
   47.3878   54.1748   37.9555 C   0  0  0  0  0  0  0  0  0  0  0  0
   46.6898   54.2772   38.9090 O   0  0  0  0  0  0  0  0  0  0  0  0
   47.0193   54.3466   35.4261 C   0  0  0  0  0  0  0  0  0  0  0  0
   48.4229   54.9295   35.1017 C   0  0  0  0  0  0  0  0  0  0  0  0
   48.5319   55.7235   33.7728 C   0  0  2  0  0  0  0  0  0  0  0  0
   49.3755   55.0585   32.7797 N   0  0  0  0  0  0  0  0  0  0  0  0
   48.9229   57.2151   34.0084 C   0  0  0  0  0  0  0  0  0  0  0  0
   48.7761   58.2235   32.8193 C   0  0  1  0  0  0  0  0  0  0  0  0
   49.7263   58.1618   31.7146 O   0  0  0  0  0  0  0  0  0  0  0  0
   47.3843   58.2995   32.1315 C   0  0  1  0  0  0  0  0  0  0  0  0
   46.2862   58.8114   32.8978 O   0  0  0  0  0  0  0  0  0  0  0  0
   47.6614   58.8844   30.7120 C   0  0  1  0  0  0  0  0  0  0  0  0
   47.2199   60.1924   30.4379 O   0  0  0  0  0  0  0  0  0  0  0  0
   49.1369   58.5393   30.4867 C   0  0  2  0  0  0  0  0  0  0  0  0
   48.7859   54.2114   38.1279 O   0  0  0  0  0  0  0  0  0  0  0  0
   47.7345   56.7304   25.5624 N   0  0  0  0  0  0  0  0  0  0  0  0
   47.2771   57.8853   26.2073 C   0  0  0  0  0  0  0  0  0  0  0  0
   47.7660   58.2196   27.5431 N   0  0  0  0  0  0  0  0  0  0  0  0
   48.6736   57.4052   28.1661 C   0  0  0  0  0  0  0  0  0  0  0  0
   49.1273   56.2438   27.5109 C   0  0  0  0  0  0  0  0  0  0  0  0
   48.6391   55.9109   26.1800 C   0  0  0  0  0  0  0  0  0  0  0  0
   49.1101   54.7053   25.4972 N   0  0  0  0  0  0  0  0  0  0  0  0
   50.0641   55.5782   28.3828 N   0  0  0  0  0  0  0  0  0  0  0  0
   50.1694   56.3442   29.5676 C   0  0  0  0  0  0  0  0  0  0  0  0
   49.3176   57.4804   29.4518 N   0  0  0  0  0  0  0  0  0  0  0  0
  2  1  1  1  0  0  0
  2  3  1  0  0  0  0
  2  5  1  0  0  0  0
  3  4  1  0  0  0  0
  3 17  1  0  0  0  0
  5  6  1  0  0  0  0
  7  6  1  1  0  0  0
  7  8  1  0  0  0  0
  7  9  1  0  0  0  0
 10  9  1  1  0  0  0
 10 11  1  0  0  0  0
 10 12  1  0  0  0  0
 11 16  1  0  0  0  0
 12 13  1  1  0  0  0
 12 14  1  0  0  0  0
 14 15  1  1  0  0  0
 14 16  1  0  0  0  0
 16 27  1  6  0  0  0
 18 19  2  0  0  0  0
 18 23  1  0  0  0  0
 19 20  1  0  0  0  0
 20 21  2  0  0  0  0
 21 22  1  0  0  0  0
 21 27  1  0  0  0  0
 22 23  2  0  0  0  0
 22 25  1  0  0  0  0
 23 24  1  0  0  0  0
 25 26  2  0  0  0  0
 26 27  1  0  0  0  0
M  END
>  <CHROM.1>
-4.54231188,-177.35730138,177.90341240,-112.91222111,-167.02082497,-73.02918049
168.84816551,48.18094011,56.44864074,31.81509542,-2.20710143,1.36970460,-0.66942401

>  <Name>
ligand

>  <RI>
0

>  <Rbt.Current_Directory>
/home/itssahil/PROJECTS/Mol_Feturizer/New_Systems/rnas/3GX2

>  <Rbt.Executable>
rbdock ($Id: //depot/dev/client3/rdock/2013.1/src/exe/rbdock.cxx#4 $)

>  <Rbt.Library>
libRbt.so (2013.1, Build901 2013/11/27)

>  <Rbt.Parameter_File>
/export/apps/rDock/src/rDock_2013.1_src/data/scripts/dock_solv.prm

>  <Rbt.Receptor>
prm/pocket_docking_5.prm

>  <SCORE>
-12.4243

>  <SCORE.INTER>
-11.9965

>  <SCORE.INTER.CONST>
1

>  <SCORE.INTER.POLAR>
0

>  <SCORE.INTER.ROT>
7

>  <SCORE.INTER.SOLV>
13.0132

>  <SCORE.INTER.VDW>
-20.6021

>  <SCORE.INTER.norm>
-0.444314

>  <SCORE.INTRA>
-0.427787

>  <SCORE.INTRA.DIHEDRAL>
-2.74891

>  <SCORE.INTRA.DIHEDRAL.0>
13.9704

>  <SCORE.INTRA.POLAR>
0

>  <SCORE.INTRA.POLAR.0>
0

>  <SCORE.INTRA.REPUL>
0

>  <SCORE.INTRA.REPUL.0>
0

>  <SCORE.INTRA.SOLV>
1.60413

>  <SCORE.INTRA.SOLV.lig_0>
-70.9758

>  <SCORE.INTRA.VDW>
0.144602

>  <SCORE.INTRA.VDW.0>
-2.70686

>  <SCORE.INTRA.norm>
-0.015844

>  <SCORE.RESTR>
0

>  <SCORE.RESTR.CAVITY>
0

>  <SCORE.RESTR.norm>
0

>  <SCORE.SYSTEM>
0

>  <SCORE.SYSTEM.CONST>
0

>  <SCORE.SYSTEM.DIHEDRAL>
0

>  <SCORE.SYSTEM.SOLV>
0

>  <SCORE.SYSTEM.norm>
0

>  <SCORE.heavy>
27

>  <SCORE.norm>
-0.460158

>  <RMSD>
6.926

$$$$
ligand
 OpenBabel11021811473D
libRbt.so/2013.1/901 2013/11/27
 27 29  0  0  0  0  0  0  0  0999 V2000
   43.6017   54.4592   34.4716 N   0  0  0  0  0  0  0  0  0  0  0  0
   44.8472   55.2168   34.3731 C   0  0  2  0  0  0  0  0  0  0  0  0
   44.8855   56.2017   33.2027 C   0  0  0  0  0  0  0  0  0  0  0  0
   44.2730   55.9433   32.2204 O   0  0  0  0  0  0  0  0  0  0  0  0
   46.1288   54.3646   34.4845 C   0  0  0  0  0  0  0  0  0  0  0  0
   47.5151   55.0670   34.4871 C   0  0  0  0  0  0  0  0  0  0  0  0
   48.7479   54.1243   34.4848 C   0  0  2  0  0  0  0  0  0  0  0  0
   50.0151   54.8439   34.6128 N   0  0  0  0  0  0  0  0  0  0  0  0
   48.7267   53.1301   33.2831 C   0  0  0  0  0  0  0  0  0  0  0  0
   49.1899   53.6446   31.8784 C   0  0  1  0  0  0  0  0  0  0  0  0
   48.9912   52.7945   30.7101 O   0  0  0  0  0  0  0  0  0  0  0  0
   48.6700   55.0411   31.4363 C   0  0  1  0  0  0  0  0  0  0  0  0
   49.1213   56.1865   32.1710 O   0  0  0  0  0  0  0  0  0  0  0  0
   48.7775   55.0431   29.8799 C   0  0  1  0  0  0  0  0  0  0  0  0
   49.7537   55.8645   29.2854 O   0  0  0  0  0  0  0  0  0  0  0  0
   48.7592   53.5499   29.5382 C   0  0  2  0  0  0  0  0  0  0  0  0
   45.2115   57.5467   33.4682 O   0  0  0  0  0  0  0  0  0  0  0  0
   46.3609   52.0079   24.9168 N   0  0  0  0  0  0  0  0  0  0  0  0
   47.7099   52.3267   25.1107 C   0  0  0  0  0  0  0  0  0  0  0  0
   48.1843   52.7256   26.4339 N   0  0  0  0  0  0  0  0  0  0  0  0
   47.3113   52.7868   27.4871 C   0  0  0  0  0  0  0  0  0  0  0  0
   45.9550   52.4662   27.2828 C   0  0  0  0  0  0  0  0  0  0  0  0
   45.4827   52.0694   25.9637 C   0  0  0  0  0  0  0  0  0  0  0  0
   44.0742   51.7350   25.7497 N   0  0  0  0  0  0  0  0  0  0  0  0
   45.2682   52.6137   28.5427 N   0  0  0  0  0  0  0  0  0  0  0  0
   46.2184   53.0276   29.5057 C   0  0  0  0  0  0  0  0  0  0  0  0
   47.4897   53.1385   28.8720 N   0  0  0  0  0  0  0  0  0  0  0  0
  2  1  1  6  0  0  0
  2  3  1  0  0  0  0
  2  5  1  0  0  0  0
  3  4  1  0  0  0  0
  3 17  1  0  0  0  0
  5  6  1  0  0  0  0
  7  6  1  6  0  0  0
  7  8  1  0  0  0  0
  7  9  1  0  0  0  0
 10  9  1  1  0  0  0
 10 11  1  0  0  0  0
 10 12  1  0  0  0  0
 11 16  1  0  0  0  0
 12 13  1  1  0  0  0
 12 14  1  0  0  0  0
 14 15  1  1  0  0  0
 14 16  1  0  0  0  0
 16 27  1  1  0  0  0
 18 19  2  0  0  0  0
 18 23  1  0  0  0  0
 19 20  1  0  0  0  0
 20 21  2  0  0  0  0
 21 22  1  0  0  0  0
 21 27  1  0  0  0  0
 22 23  2  0  0  0  0
 22 25  1  0  0  0  0
 23 24  1  0  0  0  0
 25 26  2  0  0  0  0
 26 27  1  0  0  0  0
M  END
>  <CHROM.1>
-30.18531177,-176.06090178,-175.15865115,-174.66294273,79.83203957,-171.01390768
-129.06350344,47.09783065,54.06825338,30.60477035,1.53623754,-0.01572610
1.20497959

>  <Name>
ligand

>  <RI>
0

>  <Rbt.Current_Directory>
/home/itssahil/PROJECTS/Mol_Feturizer/New_Systems/rnas/3GX2

>  <Rbt.Executable>
rbdock ($Id: //depot/dev/client3/rdock/2013.1/src/exe/rbdock.cxx#4 $)

>  <Rbt.Library>
libRbt.so (2013.1, Build901 2013/11/27)

>  <Rbt.Parameter_File>
/export/apps/rDock/src/rDock_2013.1_src/data/scripts/dock_solv.prm

>  <Rbt.Receptor>
prm/pocket_docking_7.prm

>  <SCORE>
-8.03266

>  <SCORE.INTER>
-5.49278

>  <SCORE.INTER.CONST>
1

>  <SCORE.INTER.POLAR>
0

>  <SCORE.INTER.ROT>
7

>  <SCORE.INTER.SOLV>
19.6704

>  <SCORE.INTER.VDW>
-18.4853

>  <SCORE.INTER.norm>
-0.203436

>  <SCORE.INTRA>
-2.53988

>  <SCORE.INTRA.DIHEDRAL>
-7.63872

>  <SCORE.INTRA.DIHEDRAL.0>
13.9704

>  <SCORE.INTRA.POLAR>
0

>  <SCORE.INTRA.POLAR.0>
0

>  <SCORE.INTRA.REPUL>
0

>  <SCORE.INTRA.REPUL.0>
0

>  <SCORE.INTRA.SOLV>
1.9035

>  <SCORE.INTRA.SOLV.lig_0>
-70.9758

>  <SCORE.INTRA.VDW>
0.327724

>  <SCORE.INTRA.VDW.0>
-2.70686

>  <SCORE.INTRA.norm>
-0.0940698

>  <SCORE.RESTR>
0

>  <SCORE.RESTR.CAVITY>
0

>  <SCORE.RESTR.norm>
0

>  <SCORE.SYSTEM>
0

>  <SCORE.SYSTEM.CONST>
0

>  <SCORE.SYSTEM.DIHEDRAL>
0

>  <SCORE.SYSTEM.SOLV>
0

>  <SCORE.SYSTEM.norm>
0

>  <SCORE.heavy>
27

>  <SCORE.norm>
-0.297506

>  <RMSD>
6.967

$$$$
ligand
 OpenBabel11021811473D
libRbt.so/2013.1/901 2013/11/27
 27 29  0  0  0  0  0  0  0  0999 V2000
   49.4111   54.2910   33.9198 N   0  0  0  0  0  0  0  0  0  0  0  0
   48.5073   55.2347   34.5738 C   0  0  2  0  0  0  0  0  0  0  0  0
   47.0314   54.8389   34.4952 C   0  0  0  0  0  0  0  0  0  0  0  0
   46.5876   54.4990   33.4491 O   0  0  0  0  0  0  0  0  0  0  0  0
   48.7533   56.7150   34.2143 C   0  0  0  0  0  0  0  0  0  0  0  0
   48.6505   57.1680   32.7313 C   0  0  0  0  0  0  0  0  0  0  0  0
   48.9573   58.6651   32.4613 C   0  0  2  0  0  0  0  0  0  0  0  0
   47.9020   59.5579   32.9402 N   0  0  0  0  0  0  0  0  0  0  0  0
   49.3532   58.9266   30.9754 C   0  0  0  0  0  0  0  0  0  0  0  0
   48.2285   58.9002   29.8860 C   0  0  1  0  0  0  0  0  0  0  0  0
   48.5959   58.6828   28.4914 O   0  0  0  0  0  0  0  0  0  0  0  0
   47.0377   57.9315   30.1301 C   0  0  1  0  0  0  0  0  0  0  0  0
   46.1678   58.2059   31.2361 O   0  0  0  0  0  0  0  0  0  0  0  0
   46.4208   57.6788   28.7196 C   0  0  1  0  0  0  0  0  0  0  0  0
   45.1565   58.2315   28.4420 O   0  0  0  0  0  0  0  0  0  0  0  0
   47.5883   57.9935   27.7791 C   0  0  2  0  0  0  0  0  0  0  0  0
   46.3839   54.4255   35.6765 O   0  0  0  0  0  0  0  0  0  0  0  0
   50.6983   53.5731   28.3042 N   0  0  0  0  0  0  0  0  0  0  0  0
   50.4390   54.5514   29.2709 C   0  0  0  0  0  0  0  0  0  0  0  0
   49.5709   55.6827   28.9524 N   0  0  0  0  0  0  0  0  0  0  0  0
   49.0077   55.7875   27.7086 C   0  0  0  0  0  0  0  0  0  0  0  0
   49.2753   54.7995   26.7409 C   0  0  0  0  0  0  0  0  0  0  0  0
   50.1412   53.6728   27.0589 C   0  0  0  0  0  0  0  0  0  0  0  0
   50.4196   52.6449   26.0552 N   0  0  0  0  0  0  0  0  0  0  0  0
   48.5657   55.1532   25.5358 N   0  0  0  0  0  0  0  0  0  0  0  0
   47.8717   56.3610   25.7830 C   0  0  0  0  0  0  0  0  0  0  0  0
   48.1312   56.7687   27.1233 N   0  0  0  0  0  0  0  0  0  0  0  0
  2  1  1  6  0  0  0
  2  3  1  0  0  0  0
  2  5  1  0  0  0  0
  3  4  1  0  0  0  0
  3 17  1  0  0  0  0
  5  6  1  0  0  0  0
  7  6  1  6  0  0  0
  7  8  1  0  0  0  0
  7  9  1  0  0  0  0
 10  9  1  1  0  0  0
 10 11  1  0  0  0  0
 10 12  1  0  0  0  0
 11 16  1  0  0  0  0
 12 13  1  1  0  0  0
 12 14  1  0  0  0  0
 14 15  1  6  0  0  0
 14 16  1  0  0  0  0
 16 27  1  1  0  0  0
 18 19  2  0  0  0  0
 18 23  1  0  0  0  0
 19 20  1  0  0  0  0
 20 21  2  0  0  0  0
 21 22  1  0  0  0  0
 21 27  1  0  0  0  0
 22 23  2  0  0  0  0
 22 25  1  0  0  0  0
 23 24  1  0  0  0  0
 25 26  2  0  0  0  0
 26 27  1  0  0  0  0
M  END
>  <CHROM.1>
-47.27172834,59.42392235,-178.16720692,-72.04841616,74.49214357,-159.18629221
45.12702479,48.26570114,56.36059308,30.19053710,-1.99903498,1.12667530,-1.28232065

>  <Name>
ligand

>  <RI>
0

>  <Rbt.Current_Directory>
/home/itssahil/PROJECTS/Mol_Feturizer/New_Systems/rnas/3GX2

>  <Rbt.Executable>
rbdock ($Id: //depot/dev/client3/rdock/2013.1/src/exe/rbdock.cxx#4 $)

>  <Rbt.Library>
libRbt.so (2013.1, Build901 2013/11/27)

>  <Rbt.Parameter_File>
/export/apps/rDock/src/rDock_2013.1_src/data/scripts/dock_solv.prm

>  <Rbt.Receptor>
prm/pocket_docking_4.prm

>  <SCORE>
-7.84807

>  <SCORE.INTER>
-5.56313

>  <SCORE.INTER.CONST>
1

>  <SCORE.INTER.POLAR>
0

>  <SCORE.INTER.ROT>
7

>  <SCORE.INTER.SOLV>
13.9707

>  <SCORE.INTER.VDW>
-16.6323

>  <SCORE.INTER.norm>
-0.206042

>  <SCORE.INTRA>
-2.29307

>  <SCORE.INTRA.DIHEDRAL>
-6.6448

>  <SCORE.INTRA.DIHEDRAL.0>
13.9704

>  <SCORE.INTRA.POLAR>
0

>  <SCORE.INTRA.POLAR.0>
0

>  <SCORE.INTRA.REPUL>
0

>  <SCORE.INTRA.REPUL.0>
0

>  <SCORE.INTRA.SOLV>
2.99318

>  <SCORE.INTRA.SOLV.lig_0>
-70.9758

>  <SCORE.INTRA.VDW>
-0.467264

>  <SCORE.INTRA.VDW.0>
-2.70686

>  <SCORE.INTRA.norm>
-0.0849287

>  <SCORE.RESTR>
0.00813611

>  <SCORE.RESTR.CAVITY>
0.00813611

>  <SCORE.RESTR.norm>
0.000301338

>  <SCORE.SYSTEM>
0

>  <SCORE.SYSTEM.CONST>
0

>  <SCORE.SYSTEM.DIHEDRAL>
0

>  <SCORE.SYSTEM.SOLV>
0

>  <SCORE.SYSTEM.norm>
0

>  <SCORE.heavy>
27

>  <SCORE.norm>
-0.290669

>  <RMSD>
6.978

$$$$
ligand
 OpenBabel11021811473D
libRbt.so/2013.1/901 2013/11/27
 27 29  0  0  0  0  0  0  0  0999 V2000
   46.6704   54.3240   35.8525 N   0  0  0  0  0  0  0  0  0  0  0  0
   47.8301   53.7971   36.5684 C   0  0  2  0  0  0  0  0  0  0  0  0
   47.5225   53.3296   37.9925 C   0  0  0  0  0  0  0  0  0  0  0  0
   48.3412   52.6988   38.5744 O   0  0  0  0  0  0  0  0  0  0  0  0
   49.0930   54.6798   36.4846 C   0  0  0  0  0  0  0  0  0  0  0  0
   49.7048   55.0075   35.0941 C   0  0  0  0  0  0  0  0  0  0  0  0
   48.9304   56.0516   34.2464 C   0  0  2  0  0  0  0  0  0  0  0  0
   47.6664   55.5346   33.7220 N   0  0  0  0  0  0  0  0  0  0  0  0
   49.8283   56.7022   33.1493 C   0  0  0  0  0  0  0  0  0  0  0  0
   49.2728   57.9381   32.3643 C   0  0  1  0  0  0  0  0  0  0  0  0
   49.8635   58.2854   31.0768 O   0  0  0  0  0  0  0  0  0  0  0  0
   47.7395   57.9780   32.1122 C   0  0  1  0  0  0  0  0  0  0  0  0
   46.8781   58.1237   33.2488 O   0  0  0  0  0  0  0  0  0  0  0  0
   47.5514   58.9251   30.8868 C   0  0  1  0  0  0  0  0  0  0  0  0
   46.9592   60.1826   31.1077 O   0  0  0  0  0  0  0  0  0  0  0  0
   48.9183   58.8619   30.1981 C   0  0  2  0  0  0  0  0  0  0  0  0
   46.5486   54.0293   38.7326 O   0  0  0  0  0  0  0  0  0  0  0  0
   50.6526   54.5780   27.3472 N   0  0  0  0  0  0  0  0  0  0  0  0
   50.9894   54.9183   28.6623 C   0  0  0  0  0  0  0  0  0  0  0  0
   50.4236   56.1179   29.2753 N   0  0  0  0  0  0  0  0  0  0  0  0
   49.5617   56.9108   28.5656 C   0  0  0  0  0  0  0  0  0  0  0  0
   49.2295   56.5621   27.2419 C   0  0  0  0  0  0  0  0  0  0  0  0
   49.7943   55.3668   26.6314 C   0  0  0  0  0  0  0  0  0  0  0  0
   49.4496   55.0024   25.2567 N   0  0  0  0  0  0  0  0  0  0  0  0
   48.3168   57.5577   26.7352 N   0  0  0  0  0  0  0  0  0  0  0  0
   48.1038   58.5089   27.7606 C   0  0  0  0  0  0  0  0  0  0  0  0
   48.8644   58.1248   28.9025 N   0  0  0  0  0  0  0  0  0  0  0  0
  2  1  1  1  0  0  0
  2  3  1  0  0  0  0
  2  5  1  0  0  0  0
  3  4  1  0  0  0  0
  3 17  1  0  0  0  0
  5  6  1  0  0  0  0
  7  6  1  6  0  0  0
  7  8  1  0  0  0  0
  7  9  1  0  0  0  0
 10  9  1  6  0  0  0
 10 11  1  0  0  0  0
 10 12  1  0  0  0  0
 11 16  1  0  0  0  0
 12 13  1  1  0  0  0
 12 14  1  0  0  0  0
 14 15  1  1  0  0  0
 14 16  1  0  0  0  0
 16 27  1  6  0  0  0
 18 19  2  0  0  0  0
 18 23  1  0  0  0  0
 19 20  1  0  0  0  0
 20 21  2  0  0  0  0
 21 22  1  0  0  0  0
 21 27  1  0  0  0  0
 22 23  2  0  0  0  0
 22 25  1  0  0  0  0
 23 24  1  0  0  0  0
 25 26  2  0  0  0  0
 26 27  1  0  0  0  0
M  END
>  <CHROM.1>
168.31136434,-59.08618237,74.68382200,-71.53053310,-170.12052705,-159.92738393
5.37317576,48.65227277,56.29799052,31.92064601,-1.92910647,1.13081125,-0.96347216

>  <Name>
ligand

>  <RI>
0

>  <Rbt.Current_Directory>
/home/itssahil/PROJECTS/Mol_Feturizer/New_Systems/rnas/3GX2

>  <Rbt.Executable>
rbdock ($Id: //depot/dev/client3/rdock/2013.1/src/exe/rbdock.cxx#4 $)

>  <Rbt.Library>
libRbt.so (2013.1, Build901 2013/11/27)

>  <Rbt.Parameter_File>
/export/apps/rDock/src/rDock_2013.1_src/data/scripts/dock_solv.prm

>  <Rbt.Receptor>
prm/pocket_docking_5.prm

>  <SCORE>
-14.7134

>  <SCORE.INTER>
-15.3123

>  <SCORE.INTER.CONST>
1

>  <SCORE.INTER.POLAR>
0

>  <SCORE.INTER.ROT>
7

>  <SCORE.INTER.SOLV>
13.545

>  <SCORE.INTER.VDW>
-22.9899

>  <SCORE.INTER.norm>
-0.567122

>  <SCORE.INTRA>
0.598937

>  <SCORE.INTRA.DIHEDRAL>
-6.06549

>  <SCORE.INTRA.DIHEDRAL.0>
13.9704

>  <SCORE.INTRA.POLAR>
0

>  <SCORE.INTRA.POLAR.0>
0

>  <SCORE.INTRA.REPUL>
0

>  <SCORE.INTRA.REPUL.0>
0

>  <SCORE.INTRA.SOLV>
6.5125

>  <SCORE.INTRA.SOLV.lig_0>
-70.9758

>  <SCORE.INTRA.VDW>
0.375428

>  <SCORE.INTRA.VDW.0>
-2.70686

>  <SCORE.INTRA.norm>
0.0221828

>  <SCORE.RESTR>
0

>  <SCORE.RESTR.CAVITY>
0

>  <SCORE.RESTR.norm>
0

>  <SCORE.SYSTEM>
0

>  <SCORE.SYSTEM.CONST>
0

>  <SCORE.SYSTEM.DIHEDRAL>
0

>  <SCORE.SYSTEM.SOLV>
0

>  <SCORE.SYSTEM.norm>
0

>  <SCORE.heavy>
27

>  <SCORE.norm>
-0.544939

>  <RMSD>
7.065

$$$$
ligand
 OpenBabel11021811473D
libRbt.so/2013.1/901 2013/11/27
 27 29  0  0  0  0  0  0  0  0999 V2000
   48.6489   54.8500   34.2639 N   0  0  0  0  0  0  0  0  0  0  0  0
   47.8387   56.0408   34.0180 C   0  0  2  0  0  0  0  0  0  0  0  0
   46.4264   55.7389   33.5126 C   0  0  0  0  0  0  0  0  0  0  0  0
   46.1843   54.6476   33.1160 O   0  0  0  0  0  0  0  0  0  0  0  0
   48.5466   57.1433   33.2028 C   0  0  0  0  0  0  0  0  0  0  0  0
   47.8233   58.4972   32.9600 C   0  0  0  0  0  0  0  0  0  0  0  0
   48.6042   59.5355   32.1112 C   0  0  2  0  0  0  0  0  0  0  0  0
   47.9517   60.8442   32.0707 N   0  0  0  0  0  0  0  0  0  0  0  0
   48.9657   58.9872   30.6963 C   0  0  0  0  0  0  0  0  0  0  0  0
   47.8387   58.9163   29.6113 C   0  0  1  0  0  0  0  0  0  0  0  0
   48.2097   58.9234   28.2009 O   0  0  0  0  0  0  0  0  0  0  0  0
   46.8145   57.7541   29.7384 C   0  0  1  0  0  0  0  0  0  0  0  0
   45.9330   57.7595   30.8690 O   0  0  0  0  0  0  0  0  0  0  0  0
   46.2180   57.5769   28.3077 C   0  0  1  0  0  0  0  0  0  0  0  0
   44.8793   57.9573   28.0976 O   0  0  0  0  0  0  0  0  0  0  0  0
   47.3065   58.1758   27.4115 C   0  0  2  0  0  0  0  0  0  0  0  0
   45.3658   56.5520   33.9597 O   0  0  0  0  0  0  0  0  0  0  0  0
   51.7279   55.0566   26.9543 N   0  0  0  0  0  0  0  0  0  0  0  0
   51.4416   55.9854   27.9614 C   0  0  0  0  0  0  0  0  0  0  0  0
   50.1930   56.7433   27.9241 N   0  0  0  0  0  0  0  0  0  0  0  0
   49.2996   56.5458   26.9053 C   0  0  0  0  0  0  0  0  0  0  0  0
   49.5964   55.6105   25.8947 C   0  0  0  0  0  0  0  0  0  0  0  0
   50.8413   54.8560   25.9321 C   0  0  0  0  0  0  0  0  0  0  0  0
   51.1509   53.8833   24.8836 N   0  0  0  0  0  0  0  0  0  0  0  0
   48.4991   55.6041   24.9582 N   0  0  0  0  0  0  0  0  0  0  0  0
   47.5417   56.5427   25.4097 C   0  0  0  0  0  0  0  0  0  0  0  0
   48.0181   57.1347   26.6149 N   0  0  0  0  0  0  0  0  0  0  0  0
  2  1  1  6  0  0  0
  2  3  1  0  0  0  0
  2  5  1  0  0  0  0
  3  4  1  0  0  0  0
  3 17  1  0  0  0  0
  5  6  1  0  0  0  0
  7  6  1  6  0  0  0
  7  8  1  0  0  0  0
  7  9  1  0  0  0  0
 10  9  1  1  0  0  0
 10 11  1  0  0  0  0
 10 12  1  0  0  0  0
 11 16  1  0  0  0  0
 12 13  1  1  0  0  0
 12 14  1  0  0  0  0
 14 15  1  1  0  0  0
 14 16  1  0  0  0  0
 16 27  1  1  0  0  0
 18 19  2  0  0  0  0
 18 23  1  0  0  0  0
 19 20  1  0  0  0  0
 20 21  2  0  0  0  0
 21 22  1  0  0  0  0
 21 27  1  0  0  0  0
 22 23  2  0  0  0  0
 22 25  1  0  0  0  0
 23 24  1  0  0  0  0
 25 26  2  0  0  0  0
 26 27  1  0  0  0  0
M  END
>  <CHROM.1>
-14.51279456,-175.81688589,-179.08728422,-172.28793166,76.21613615,156.15902846
23.27514512,48.13701480,56.97853625,29.56307944,-2.11096762,0.85300815,-1.32866360

>  <Name>
ligand

>  <RI>
0

>  <Rbt.Current_Directory>
/home/itssahil/PROJECTS/Mol_Feturizer/New_Systems/rnas/3GX2

>  <Rbt.Executable>
rbdock ($Id: //depot/dev/client3/rdock/2013.1/src/exe/rbdock.cxx#4 $)

>  <Rbt.Library>
libRbt.so (2013.1, Build901 2013/11/27)

>  <Rbt.Parameter_File>
/export/apps/rDock/src/rDock_2013.1_src/data/scripts/dock_solv.prm

>  <Rbt.Receptor>
prm/pocket_docking_6.prm

>  <SCORE>
-14.1645

>  <SCORE.INTER>
-11.5454

>  <SCORE.INTER.CONST>
1

>  <SCORE.INTER.POLAR>
0

>  <SCORE.INTER.ROT>
7

>  <SCORE.INTER.SOLV>
15.8672

>  <SCORE.INTER.VDW>
-21.2526

>  <SCORE.INTER.norm>
-0.427606

>  <SCORE.INTRA>
-2.61917

>  <SCORE.INTRA.DIHEDRAL>
-6.34771

>  <SCORE.INTRA.DIHEDRAL.0>
13.9704

>  <SCORE.INTRA.POLAR>
0

>  <SCORE.INTRA.POLAR.0>
0

>  <SCORE.INTRA.REPUL>
0

>  <SCORE.INTRA.REPUL.0>
0

>  <SCORE.INTRA.SOLV>
1.37732

>  <SCORE.INTRA.SOLV.lig_0>
-70.9758

>  <SCORE.INTRA.VDW>
-0.133973

>  <SCORE.INTRA.VDW.0>
-2.70686

>  <SCORE.INTRA.norm>
-0.0970061

>  <SCORE.RESTR>
0

>  <SCORE.RESTR.CAVITY>
0

>  <SCORE.RESTR.norm>
0

>  <SCORE.SYSTEM>
0

>  <SCORE.SYSTEM.CONST>
0

>  <SCORE.SYSTEM.DIHEDRAL>
0

>  <SCORE.SYSTEM.SOLV>
0

>  <SCORE.SYSTEM.norm>
0

>  <SCORE.heavy>
27

>  <SCORE.norm>
-0.524612

>  <RMSD>
7.082

$$$$
ligand
 OpenBabel11021811483D
libRbt.so/2013.1/901 2013/11/27
 27 29  0  0  0  0  0  0  0  0999 V2000
   42.8561   51.8993   36.1684 N   0  0  0  0  0  0  0  0  0  0  0  0
   42.6275   52.5024   34.8573 C   0  0  2  0  0  0  0  0  0  0  0  0
   42.0477   51.5374   33.8211 C   0  0  0  0  0  0  0  0  0  0  0  0
   41.6187   50.4951   34.1905 O   0  0  0  0  0  0  0  0  0  0  0  0
   43.8125   53.3280   34.3139 C   0  0  0  0  0  0  0  0  0  0  0  0
   44.3270   54.5503   35.1241 C   0  0  0  0  0  0  0  0  0  0  0  0
   45.3813   55.4369   34.4094 C   0  0  2  0  0  0  0  0  0  0  0  0
   44.8868   56.0137   33.1592 N   0  0  0  0  0  0  0  0  0  0  0  0
   46.7513   54.7087   34.2483 C   0  0  0  0  0  0  0  0  0  0  0  0
   47.9721   55.5241   33.7032 C   0  0  1  0  0  0  0  0  0  0  0  0
   49.1603   54.8078   33.2533 O   0  0  0  0  0  0  0  0  0  0  0  0
   47.6825   56.5478   32.5700 C   0  0  1  0  0  0  0  0  0  0  0  0
   46.8724   57.6869   32.8882 O   0  0  0  0  0  0  0  0  0  0  0  0
   49.0517   56.7624   31.8536 C   0  0  1  0  0  0  0  0  0  0  0  0
   49.6949   58.0040   32.0145 O   0  0  0  0  0  0  0  0  0  0  0  0
   49.8183   55.4820   32.1995 C   0  0  2  0  0  0  0  0  0  0  0  0
   41.5980   52.0625   32.5932 O   0  0  0  0  0  0  0  0  0  0  0  0
   51.6351   55.0317   27.1021 N   0  0  0  0  0  0  0  0  0  0  0  0
   51.6749   56.1644   27.9232 C   0  0  0  0  0  0  0  0  0  0  0  0
   51.1345   56.1043   29.2794 N   0  0  0  0  0  0  0  0  0  0  0  0
   50.5895   54.9397   29.7507 C   0  0  0  0  0  0  0  0  0  0  0  0
   50.5517   53.8049   28.9171 C   0  0  0  0  0  0  0  0  0  0  0  0
   51.0898   53.8659   27.5653 C   0  0  0  0  0  0  0  0  0  0  0  0
   51.0522   52.6877   26.6982 N   0  0  0  0  0  0  0  0  0  0  0  0
   49.9316   52.7315   29.6547 N   0  0  0  0  0  0  0  0  0  0  0  0
   49.5941   53.2275   30.9359 C   0  0  0  0  0  0  0  0  0  0  0  0
   49.9952   54.5924   31.0154 N   0  0  0  0  0  0  0  0  0  0  0  0
  2  1  1  1  0  0  0
  2  3  1  0  0  0  0
  2  5  1  0  0  0  0
  3  4  1  0  0  0  0
  3 17  1  0  0  0  0
  5  6  1  0  0  0  0
  7  6  1  6  0  0  0
  7  8  1  0  0  0  0
  7  9  1  0  0  0  0
 10  9  1  6  0  0  0
 10 11  1  0  0  0  0
 10 12  1  0  0  0  0
 11 16  1  0  0  0  0
 12 13  1  1  0  0  0
 12 14  1  0  0  0  0
 14 15  1  1  0  0  0
 14 16  1  0  0  0  0
 16 27  1  6  0  0  0
 18 19  2  0  0  0  0
 18 23  1  0  0  0  0
 19 20  1  0  0  0  0
 20 21  2  0  0  0  0
 21 22  1  0  0  0  0
 21 27  1  0  0  0  0
 22 23  2  0  0  0  0
 22 25  1  0  0  0  0
 23 24  1  0  0  0  0
 25 26  2  0  0  0  0
 26 27  1  0  0  0  0
M  END
>  <CHROM.1>
12.95168492,-59.67290533,-171.62764919,59.88535687,-172.75132526,-165.83648378
178.33581685,47.42297636,54.46176557,31.93903035,2.97175528,0.61982942,0.68232760

>  <Name>
ligand

>  <RI>
0

>  <Rbt.Current_Directory>
/home/itssahil/PROJECTS/Mol_Feturizer/New_Systems/rnas/3GX2

>  <Rbt.Executable>
rbdock ($Id: //depot/dev/client3/rdock/2013.1/src/exe/rbdock.cxx#4 $)

>  <Rbt.Library>
libRbt.so (2013.1, Build901 2013/11/27)

>  <Rbt.Parameter_File>
/export/apps/rDock/src/rDock_2013.1_src/data/scripts/dock_solv.prm

>  <Rbt.Receptor>
prm/pocket_docking_8.prm

>  <SCORE>
-9.16996

>  <SCORE.INTER>
-7.92488

>  <SCORE.INTER.CONST>
1

>  <SCORE.INTER.POLAR>
0

>  <SCORE.INTER.ROT>
7

>  <SCORE.INTER.SOLV>
10.8717

>  <SCORE.INTER.VDW>
-17.1738

>  <SCORE.INTER.norm>
-0.293514

>  <SCORE.INTRA>
-1.24507

>  <SCORE.INTRA.DIHEDRAL>
-7.7846

>  <SCORE.INTRA.DIHEDRAL.0>
13.9704

>  <SCORE.INTRA.POLAR>
0

>  <SCORE.INTRA.POLAR.0>
0

>  <SCORE.INTRA.REPUL>
0

>  <SCORE.INTRA.REPUL.0>
0

>  <SCORE.INTRA.SOLV>
3.07852

>  <SCORE.INTRA.SOLV.lig_0>
-70.9758

>  <SCORE.INTRA.VDW>
1.10797

>  <SCORE.INTRA.VDW.0>
-2.70686

>  <SCORE.INTRA.norm>
-0.0461138

>  <SCORE.RESTR>
0

>  <SCORE.RESTR.CAVITY>
0

>  <SCORE.RESTR.norm>
0

>  <SCORE.SYSTEM>
0

>  <SCORE.SYSTEM.CONST>
0

>  <SCORE.SYSTEM.DIHEDRAL>
0

>  <SCORE.SYSTEM.SOLV>
0

>  <SCORE.SYSTEM.norm>
0

>  <SCORE.heavy>
27

>  <SCORE.norm>
-0.339628

>  <RMSD>
7.244

$$$$
ligand
 OpenBabel11021811483D
libRbt.so/2013.1/901 2013/11/27
 27 29  0  0  0  0  0  0  0  0999 V2000
   49.0191   55.0700   33.1184 N   0  0  0  0  0  0  0  0  0  0  0  0
   49.4369   55.6594   34.3885 C   0  0  2  0  0  0  0  0  0  0  0  0
   48.8837   54.9397   35.6202 C   0  0  0  0  0  0  0  0  0  0  0  0
   47.7238   54.6954   35.6644 O   0  0  0  0  0  0  0  0  0  0  0  0
   49.2822   57.1927   34.4676 C   0  0  0  0  0  0  0  0  0  0  0  0
   49.7237   58.0680   33.2617 C   0  0  0  0  0  0  0  0  0  0  0  0
   49.0432   57.7397   31.9061 C   0  0  2  0  0  0  0  0  0  0  0  0
   49.8729   56.9014   31.0407 N   0  0  0  0  0  0  0  0  0  0  0  0
   48.5090   59.0187   31.1904 C   0  0  0  0  0  0  0  0  0  0  0  0
   47.8118   58.8600   29.7971 C   0  0  1  0  0  0  0  0  0  0  0  0
   48.6335   58.8174   28.5929 O   0  0  0  0  0  0  0  0  0  0  0  0
   46.8257   57.6692   29.6376 C   0  0  1  0  0  0  0  0  0  0  0  0
   45.6166   57.6939   30.4075 O   0  0  0  0  0  0  0  0  0  0  0  0
   46.7460   57.4078   28.1015 C   0  0  1  0  0  0  0  0  0  0  0  0
   45.5482   57.7310   27.4369 O   0  0  0  0  0  0  0  0  0  0  0  0
   48.0606   58.0041   27.5888 C   0  0  2  0  0  0  0  0  0  0  0  0
   49.7706   54.1778   36.4067 O   0  0  0  0  0  0  0  0  0  0  0  0
   49.4032   54.4947   23.6685 N   0  0  0  0  0  0  0  0  0  0  0  0
   48.3173   55.3776   23.6856 C   0  0  0  0  0  0  0  0  0  0  0  0
   48.1075   56.2570   24.8335 N   0  0  0  0  0  0  0  0  0  0  0  0
   48.9732   56.2209   25.8938 C   0  0  0  0  0  0  0  0  0  0  0  0
   50.0624   55.3281   25.8694 C   0  0  0  0  0  0  0  0  0  0  0  0
   50.2705   54.4514   24.7255 C   0  0  0  0  0  0  0  0  0  0  0  0
   51.4020   53.5239   24.6979 N   0  0  0  0  0  0  0  0  0  0  0  0
   50.8021   55.4949   27.0966 N   0  0  0  0  0  0  0  0  0  0  0  0
   50.1503   56.4912   27.8608 C   0  0  0  0  0  0  0  0  0  0  0  0
   49.0168   56.9544   27.1322 N   0  0  0  0  0  0  0  0  0  0  0  0
  2  1  1  6  0  0  0
  2  3  1  0  0  0  0
  2  5  1  0  0  0  0
  3  4  1  0  0  0  0
  3 17  1  0  0  0  0
  5  6  1  0  0  0  0
  7  6  1  1  0  0  0
  7  8  1  0  0  0  0
  7  9  1  0  0  0  0
 10  9  1  1  0  0  0
 10 11  1  0  0  0  0
 10 12  1  0  0  0  0
 11 16  1  0  0  0  0
 12 13  1  6  0  0  0
 12 14  1  0  0  0  0
 14 15  1  6  0  0  0
 14 16  1  0  0  0  0
 16 27  1  1  0  0  0
 18 19  2  0  0  0  0
 18 23  1  0  0  0  0
 19 20  1  0  0  0  0
 20 21  2  0  0  0  0
 21 22  1  0  0  0  0
 21 27  1  0  0  0  0
 22 23  2  0  0  0  0
 22 25  1  0  0  0  0
 23 24  1  0  0  0  0
 25 26  2  0  0  0  0
 26 27  1  0  0  0  0
M  END
>  <CHROM.1>
-49.00698999,-43.86248454,57.26182877,-98.89958087,179.13286328,-84.73220756
-159.74191124,48.73438637,56.46820991,29.54535527,-1.61189060,0.86948475
-1.56614031

>  <Name>
ligand

>  <RI>
0

>  <Rbt.Current_Directory>
/home/itssahil/PROJECTS/Mol_Feturizer/New_Systems/rnas/3GX2

>  <Rbt.Executable>
rbdock ($Id: //depot/dev/client3/rdock/2013.1/src/exe/rbdock.cxx#4 $)

>  <Rbt.Library>
libRbt.so (2013.1, Build901 2013/11/27)

>  <Rbt.Parameter_File>
/export/apps/rDock/src/rDock_2013.1_src/data/scripts/dock_solv.prm

>  <Rbt.Receptor>
prm/pocket_docking_8.prm

>  <SCORE>
-10.5737

>  <SCORE.INTER>
-12.0277

>  <SCORE.INTER.CONST>
1

>  <SCORE.INTER.POLAR>
0

>  <SCORE.INTER.ROT>
7

>  <SCORE.INTER.SOLV>
12.4646

>  <SCORE.INTER.VDW>
-20.44

>  <SCORE.INTER.norm>
-0.445471

>  <SCORE.INTRA>
1.4453

>  <SCORE.INTRA.DIHEDRAL>
-2.84144

>  <SCORE.INTRA.DIHEDRAL.0>
13.9704

>  <SCORE.INTRA.POLAR>
0

>  <SCORE.INTRA.POLAR.0>
0

>  <SCORE.INTRA.REPUL>
0

>  <SCORE.INTRA.REPUL.0>
0

>  <SCORE.INTRA.SOLV>
6.30072

>  <SCORE.INTRA.SOLV.lig_0>
-70.9758

>  <SCORE.INTRA.VDW>
-0.284341

>  <SCORE.INTRA.VDW.0>
-2.70686

>  <SCORE.INTRA.norm>
0.0535295

>  <SCORE.RESTR>
0.00871616

>  <SCORE.RESTR.CAVITY>
0.00871616

>  <SCORE.RESTR.norm>
0.000322821

>  <SCORE.SYSTEM>
0

>  <SCORE.SYSTEM.CONST>
0

>  <SCORE.SYSTEM.DIHEDRAL>
0

>  <SCORE.SYSTEM.SOLV>
0

>  <SCORE.SYSTEM.norm>
0

>  <SCORE.heavy>
27

>  <SCORE.norm>
-0.391619

>  <RMSD>
7.343

$$$$
ligand
 OpenBabel11021811483D
libRbt.so/2013.1/901 2013/11/27
 27 29  0  0  0  0  0  0  0  0999 V2000
   43.5868   52.1798   37.6619 N   0  0  0  0  0  0  0  0  0  0  0  0
   43.6415   52.8697   36.3751 C   0  0  2  0  0  0  0  0  0  0  0  0
   42.6458   52.3388   35.3416 C   0  0  0  0  0  0  0  0  0  0  0  0
   42.2057   51.2465   35.4833 O   0  0  0  0  0  0  0  0  0  0  0  0
   45.0630   53.0516   35.8029 C   0  0  0  0  0  0  0  0  0  0  0  0
   46.1339   53.8023   36.6424 C   0  0  0  0  0  0  0  0  0  0  0  0
   47.4198   54.2166   35.8787 C   0  0  2  0  0  0  0  0  0  0  0  0
   48.4726   54.7140   36.7642 N   0  0  0  0  0  0  0  0  0  0  0  0
   47.1144   55.1787   34.6895 C   0  0  0  0  0  0  0  0  0  0  0  0
   48.3097   55.9213   34.0023 C   0  0  1  0  0  0  0  0  0  0  0  0
   49.4339   55.1414   33.4974 O   0  0  0  0  0  0  0  0  0  0  0  0
   47.9578   56.8932   32.8415 C   0  0  1  0  0  0  0  0  0  0  0  0
   47.2118   58.0750   33.1610 O   0  0  0  0  0  0  0  0  0  0  0  0
   49.2684   57.0220   32.0050 C   0  0  1  0  0  0  0  0  0  0  0  0
   49.9600   58.2472   32.0438 O   0  0  0  0  0  0  0  0  0  0  0  0
   50.0219   55.7357   32.3577 C   0  0  2  0  0  0  0  0  0  0  0  0
   41.9253   53.2682   34.5652 O   0  0  0  0  0  0  0  0  0  0  0  0
   51.3892   54.9555   27.1607 N   0  0  0  0  0  0  0  0  0  0  0  0
   51.5310   56.1281   27.9115 C   0  0  0  0  0  0  0  0  0  0  0  0
   51.1051   56.1580   29.3089 N   0  0  0  0  0  0  0  0  0  0  0  0
   50.5682   55.0390   29.8875 C   0  0  0  0  0  0  0  0  0  0  0  0
   50.4272   53.8636   29.1242 C   0  0  0  0  0  0  0  0  0  0  0  0
   50.8512   53.8348   27.7314 C   0  0  0  0  0  0  0  0  0  0  0  0
   50.7064   52.6143   26.9370 N   0  0  0  0  0  0  0  0  0  0  0  0
   49.8405   52.8521   29.9689 N   0  0  0  0  0  0  0  0  0  0  0  0
   49.6267   53.4264   31.2441 C   0  0  0  0  0  0  0  0  0  0  0  0
   50.0726   54.7793   31.2143 N   0  0  0  0  0  0  0  0  0  0  0  0
  2  1  1  1  0  0  0
  2  3  1  0  0  0  0
  2  5  1  0  0  0  0
  3  4  1  0  0  0  0
  3 17  1  0  0  0  0
  5  6  1  0  0  0  0
  7  6  1  1  0  0  0
  7  8  1  0  0  0  0
  7  9  1  0  0  0  0
 10  9  1  6  0  0  0
 10 11  1  0  0  0  0
 10 12  1  0  0  0  0
 11 16  1  0  0  0  0
 12 13  1  1  0  0  0
 12 14  1  0  0  0  0
 14 15  1  1  0  0  0
 14 16  1  0  0  0  0
 16 27  1  6  0  0  0
 18 19  2  0  0  0  0
 18 23  1  0  0  0  0
 19 20  1  0  0  0  0
 20 21  2  0  0  0  0
 21 22  1  0  0  0  0
 21 27  1  0  0  0  0
 22 23  2  0  0  0  0
 22 25  1  0  0  0  0
 23 24  1  0  0  0  0
 25 26  2  0  0  0  0
 26 27  1  0  0  0  0
M  END
>  <CHROM.1>
-20.77043914,-57.39213380,-166.82162315,-170.40631449,167.62498394,54.16771086
178.25158259,47.91648895,54.58786121,32.67251877,2.72156834,0.72761648,0.87766676

>  <Name>
ligand

>  <RI>
0

>  <Rbt.Current_Directory>
/home/itssahil/PROJECTS/Mol_Feturizer/New_Systems/rnas/3GX2

>  <Rbt.Executable>
rbdock ($Id: //depot/dev/client3/rdock/2013.1/src/exe/rbdock.cxx#4 $)

>  <Rbt.Library>
libRbt.so (2013.1, Build901 2013/11/27)

>  <Rbt.Parameter_File>
/export/apps/rDock/src/rDock_2013.1_src/data/scripts/dock_solv.prm

>  <Rbt.Receptor>
prm/pocket_docking_8.prm

>  <SCORE>
-11.1425

>  <SCORE.INTER>
-8.32187

>  <SCORE.INTER.CONST>
1

>  <SCORE.INTER.POLAR>
0

>  <SCORE.INTER.ROT>
7

>  <SCORE.INTER.SOLV>
12.8405

>  <SCORE.INTER.VDW>
-18.0947

>  <SCORE.INTER.norm>
-0.308217

>  <SCORE.INTRA>
-2.8206

>  <SCORE.INTRA.DIHEDRAL>
-7.84748

>  <SCORE.INTRA.DIHEDRAL.0>
13.9704

>  <SCORE.INTRA.POLAR>
0

>  <SCORE.INTRA.POLAR.0>
0

>  <SCORE.INTRA.REPUL>
0

>  <SCORE.INTRA.REPUL.0>
0

>  <SCORE.INTRA.SOLV>
0.64685

>  <SCORE.INTRA.SOLV.lig_0>
-70.9758

>  <SCORE.INTRA.VDW>
0.779717

>  <SCORE.INTRA.VDW.0>
-2.70686

>  <SCORE.INTRA.norm>
-0.104467

>  <SCORE.RESTR>
0

>  <SCORE.RESTR.CAVITY>
0

>  <SCORE.RESTR.norm>
0

>  <SCORE.SYSTEM>
0

>  <SCORE.SYSTEM.CONST>
0

>  <SCORE.SYSTEM.DIHEDRAL>
0

>  <SCORE.SYSTEM.SOLV>
0

>  <SCORE.SYSTEM.norm>
0

>  <SCORE.heavy>
27

>  <SCORE.norm>
-0.412684

>  <RMSD>
7.409

$$$$
ligand
 OpenBabel11021811473D
libRbt.so/2013.1/901 2013/11/27
 27 29  0  0  0  0  0  0  0  0999 V2000
   49.3197   55.1016   35.8887 N   0  0  0  0  0  0  0  0  0  0  0  0
   48.2041   55.0562   34.9462 C   0  0  2  0  0  0  0  0  0  0  0  0
   47.6804   53.6454   34.6694 C   0  0  0  0  0  0  0  0  0  0  0  0
   46.5564   53.5145   34.3140 O   0  0  0  0  0  0  0  0  0  0  0  0
   48.4147   55.8828   33.6603 C   0  0  0  0  0  0  0  0  0  0  0  0
   48.5612   57.4268   33.7603 C   0  0  0  0  0  0  0  0  0  0  0  0
   48.7171   58.1775   32.4110 C   0  0  2  0  0  0  0  0  0  0  0  0
   48.9093   59.6178   32.5798 N   0  0  0  0  0  0  0  0  0  0  0  0
   47.5773   57.8253   31.4060 C   0  0  0  0  0  0  0  0  0  0  0  0
   47.6884   58.3508   29.9350 C   0  0  1  0  0  0  0  0  0  0  0  0
   48.9662   58.2488   29.2394 O   0  0  0  0  0  0  0  0  0  0  0  0
   46.6464   57.8102   28.9162 C   0  0  1  0  0  0  0  0  0  0  0  0
   45.2738   58.1792   29.1032 O   0  0  0  0  0  0  0  0  0  0  0  0
   47.3046   58.0070   27.5154 C   0  0  1  0  0  0  0  0  0  0  0  0
   46.7639   58.9873   26.6625 O   0  0  0  0  0  0  0  0  0  0  0  0
   48.7989   58.0591   27.8487 C   0  0  2  0  0  0  0  0  0  0  0  0
   48.6116   52.6307   34.3716 O   0  0  0  0  0  0  0  0  0  0  0  0
   49.3183   54.3207   23.9447 N   0  0  0  0  0  0  0  0  0  0  0  0
   48.4171   55.3908   23.9843 C   0  0  0  0  0  0  0  0  0  0  0  0
   48.4174   56.3057   25.1235 N   0  0  0  0  0  0  0  0  0  0  0  0
   49.3001   56.1196   26.1538 C   0  0  0  0  0  0  0  0  0  0  0  0
   50.2025   55.0391   26.1069 C   0  0  0  0  0  0  0  0  0  0  0  0
   50.2011   54.1272   24.9715 C   0  0  0  0  0  0  0  0  0  0  0  0
   51.1384   53.0047   24.9206 N   0  0  0  0  0  0  0  0  0  0  0  0
   51.0054   55.0775   27.3047 N   0  0  0  0  0  0  0  0  0  0  0  0
   50.5792   56.1858   28.0739 C   0  0  0  0  0  0  0  0  0  0  0  0
   49.5254   56.8448   27.3772 N   0  0  0  0  0  0  0  0  0  0  0  0
  2  1  1  6  0  0  0
  2  3  1  0  0  0  0
  2  5  1  0  0  0  0
  3  4  1  0  0  0  0
  3 17  1  0  0  0  0
  5  6  1  0  0  0  0
  7  6  1  1  0  0  0
  7  8  1  0  0  0  0
  7  9  1  0  0  0  0
 10  9  1  1  0  0  0
 10 11  1  0  0  0  0
 10 12  1  0  0  0  0
 11 16  1  0  0  0  0
 12 13  1  6  0  0  0
 12 14  1  0  0  0  0
 14 15  1  1  0  0  0
 14 16  1  0  0  0  0
 16 27  1  1  0  0  0
 18 19  2  0  0  0  0
 18 23  1  0  0  0  0
 19 20  1  0  0  0  0
 20 21  2  0  0  0  0
 21 22  1  0  0  0  0
 21 27  1  0  0  0  0
 22 23  2  0  0  0  0
 22 25  1  0  0  0  0
 23 24  1  0  0  0  0
 25 26  2  0  0  0  0
 26 27  1  0  0  0  0
M  END
>  <CHROM.1>
154.78253634,-63.83565073,-177.83606369,-177.46006959,-172.09778390,44.27698659
161.05555808,48.54255904,56.26818051,29.55629036,-1.88047427,1.14978414,-1.25296466

>  <Name>
ligand

>  <RI>
0

>  <Rbt.Current_Directory>
/home/itssahil/PROJECTS/Mol_Feturizer/New_Systems/rnas/3GX2

>  <Rbt.Executable>
rbdock ($Id: //depot/dev/client3/rdock/2013.1/src/exe/rbdock.cxx#4 $)

>  <Rbt.Library>
libRbt.so (2013.1, Build901 2013/11/27)

>  <Rbt.Parameter_File>
/export/apps/rDock/src/rDock_2013.1_src/data/scripts/dock_solv.prm

>  <Rbt.Receptor>
prm/pocket_docking_6.prm

>  <SCORE>
-10.8576

>  <SCORE.INTER>
-7.94326

>  <SCORE.INTER.CONST>
1

>  <SCORE.INTER.POLAR>
0

>  <SCORE.INTER.ROT>
7

>  <SCORE.INTER.SOLV>
18.119

>  <SCORE.INTER.VDW>
-19.6019

>  <SCORE.INTER.norm>
-0.294195

>  <SCORE.INTRA>
-2.91436

>  <SCORE.INTRA.DIHEDRAL>
-7.91373

>  <SCORE.INTRA.DIHEDRAL.0>
13.9704

>  <SCORE.INTRA.POLAR>
0

>  <SCORE.INTRA.POLAR.0>
0

>  <SCORE.INTRA.REPUL>
0

>  <SCORE.INTRA.REPUL.0>
0

>  <SCORE.INTRA.SOLV>
0.330653

>  <SCORE.INTRA.SOLV.lig_0>
-70.9758

>  <SCORE.INTRA.VDW>
0.877174

>  <SCORE.INTRA.VDW.0>
-2.70686

>  <SCORE.INTRA.norm>
-0.107939

>  <SCORE.RESTR>
0

>  <SCORE.RESTR.CAVITY>
0

>  <SCORE.RESTR.norm>
0

>  <SCORE.SYSTEM>
0

>  <SCORE.SYSTEM.CONST>
0

>  <SCORE.SYSTEM.DIHEDRAL>
0

>  <SCORE.SYSTEM.SOLV>
0

>  <SCORE.SYSTEM.norm>
0

>  <SCORE.heavy>
27

>  <SCORE.norm>
-0.402134

>  <RMSD>
7.433

$$$$
ligand
 OpenBabel11021811473D
libRbt.so/2013.1/901 2013/11/27
 27 29  0  0  0  0  0  0  0  0999 V2000
   48.6514   55.1605   32.0816 N   0  0  0  0  0  0  0  0  0  0  0  0
   49.4780   56.3337   31.8072 C   0  0  2  0  0  0  0  0  0  0  0  0
   49.0707   57.5800   32.5958 C   0  0  0  0  0  0  0  0  0  0  0  0
   47.9280   57.7279   32.8774 O   0  0  0  0  0  0  0  0  0  0  0  0
   49.7116   56.6195   30.3089 C   0  0  0  0  0  0  0  0  0  0  0  0
   50.5683   55.6329   29.4677 C   0  0  0  0  0  0  0  0  0  0  0  0
   50.9304   56.1074   28.0351 C   0  0  2  0  0  0  0  0  0  0  0  0
   49.7582   56.2648   27.1742 N   0  0  0  0  0  0  0  0  0  0  0  0
   52.0506   55.2338   27.3909 C   0  0  0  0  0  0  0  0  0  0  0  0
   51.7466   53.7262   27.0958 C   0  0  1  0  0  0  0  0  0  0  0  0
   51.0155   52.9426   28.0850 O   0  0  0  0  0  0  0  0  0  0  0  0
   51.0446   53.4028   25.7472 C   0  0  1  0  0  0  0  0  0  0  0  0
   51.7740   53.6475   24.5376 O   0  0  0  0  0  0  0  0  0  0  0  0
   50.3682   52.0134   25.9616 C   0  0  1  0  0  0  0  0  0  0  0  0
   50.9037   50.9048   25.2796 O   0  0  0  0  0  0  0  0  0  0  0  0
   50.2172   51.9427   27.4845 C   0  0  2  0  0  0  0  0  0  0  0  0
   50.0520   58.2387   33.3631 O   0  0  0  0  0  0  0  0  0  0  0  0
   45.0232   52.2664   25.9338 N   0  0  0  0  0  0  0  0  0  0  0  0
   46.1520   52.1630   25.1128 C   0  0  0  0  0  0  0  0  0  0  0  0
   47.4845   52.0862   25.7073 N   0  0  0  0  0  0  0  0  0  0  0  0
   47.6320   52.1133   27.0685 C   0  0  0  0  0  0  0  0  0  0  0  0
   46.4908   52.2195   27.8874 C   0  0  0  0  0  0  0  0  0  0  0  0
   45.1632   52.2968   27.2941 C   0  0  0  0  0  0  0  0  0  0  0  0
   43.9765   52.4061   28.1433 N   0  0  0  0  0  0  0  0  0  0  0  0
   46.9287   52.2277   29.2619 N   0  0  0  0  0  0  0  0  0  0  0  0
   48.3400   52.1286   29.2652 C   0  0  0  0  0  0  0  0  0  0  0  0
   48.7940   52.0548   27.9167 N   0  0  0  0  0  0  0  0  0  0  0  0
  2  1  1  6  0  0  0
  2  3  1  0  0  0  0
  2  5  1  0  0  0  0
  3  4  1  0  0  0  0
  3 17  1  0  0  0  0
  5  6  1  0  0  0  0
  7  6  1  1  0  0  0
  7  8  1  0  0  0  0
  7  9  1  0  0  0  0
 10  9  1  1  0  0  0
 10 11  1  0  0  0  0
 10 12  1  0  0  0  0
 11 16  1  0  0  0  0
 12 13  1  6  0  0  0
 12 14  1  0  0  0  0
 14 15  1  1  0  0  0
 14 16  1  0  0  0  0
 16 27  1  6  0  0  0
 18 19  2  0  0  0  0
 18 23  1  0  0  0  0
 19 20  1  0  0  0  0
 20 21  2  0  0  0  0
 21 22  1  0  0  0  0
 21 27  1  0  0  0  0
 22 23  2  0  0  0  0
 22 25  1  0  0  0  0
 23 24  1  0  0  0  0
 25 26  2  0  0  0  0
 26 27  1  0  0  0  0
M  END
>  <CHROM.1>
-31.28493783,-67.65266888,-170.99114749,-64.24958263,64.82882719,-41.84944007
128.09320968,49.00433970,53.96290210,28.29296168,1.41690242,0.31606331,0.90966783

>  <Name>
ligand

>  <RI>
0

>  <Rbt.Current_Directory>
/home/itssahil/PROJECTS/Mol_Feturizer/New_Systems/rnas/3GX2

>  <Rbt.Executable>
rbdock ($Id: //depot/dev/client3/rdock/2013.1/src/exe/rbdock.cxx#4 $)

>  <Rbt.Library>
libRbt.so (2013.1, Build901 2013/11/27)

>  <Rbt.Parameter_File>
/export/apps/rDock/src/rDock_2013.1_src/data/scripts/dock_solv.prm

>  <Rbt.Receptor>
prm/pocket_docking_6.prm

>  <SCORE>
-13.7221

>  <SCORE.INTER>
-10.793

>  <SCORE.INTER.CONST>
1

>  <SCORE.INTER.POLAR>
0

>  <SCORE.INTER.ROT>
7

>  <SCORE.INTER.SOLV>
15.8283

>  <SCORE.INTER.VDW>
-20.7381

>  <SCORE.INTER.norm>
-0.39974

>  <SCORE.INTRA>
-2.92918

>  <SCORE.INTRA.DIHEDRAL>
-7.59364

>  <SCORE.INTRA.DIHEDRAL.0>
13.9704

>  <SCORE.INTRA.POLAR>
0

>  <SCORE.INTRA.POLAR.0>
0

>  <SCORE.INTRA.REPUL>
0

>  <SCORE.INTRA.REPUL.0>
0

>  <SCORE.INTRA.SOLV>
2.06391

>  <SCORE.INTRA.SOLV.lig_0>
-70.9758

>  <SCORE.INTRA.VDW>
-0.164311

>  <SCORE.INTRA.VDW.0>
-2.70686

>  <SCORE.INTRA.norm>
-0.108488

>  <SCORE.RESTR>
0

>  <SCORE.RESTR.CAVITY>
0

>  <SCORE.RESTR.norm>
0

>  <SCORE.SYSTEM>
0

>  <SCORE.SYSTEM.CONST>
0

>  <SCORE.SYSTEM.DIHEDRAL>
0

>  <SCORE.SYSTEM.SOLV>
0

>  <SCORE.SYSTEM.norm>
0

>  <SCORE.heavy>
27

>  <SCORE.norm>
-0.508227

>  <RMSD>
7.442

$$$$
ligand
 OpenBabel11021811473D
libRbt.so/2013.1/901 2013/11/27
 27 29  0  0  0  0  0  0  0  0999 V2000
   46.9980   57.8653   32.1755 N   0  0  0  0  0  0  0  0  0  0  0  0
   48.0940   58.7964   31.9167 C   0  0  2  0  0  0  0  0  0  0  0  0
   47.6544   60.2572   31.7983 C   0  0  0  0  0  0  0  0  0  0  0  0
   48.4487   61.0644   31.4454 O   0  0  0  0  0  0  0  0  0  0  0  0
   49.0527   58.3632   30.7879 C   0  0  0  0  0  0  0  0  0  0  0  0
   48.4940   58.1402   29.3550 C   0  0  0  0  0  0  0  0  0  0  0  0
   48.5276   56.6770   28.8389 C   0  0  2  0  0  0  0  0  0  0  0  0
   48.2046   56.5674   27.4163 N   0  0  0  0  0  0  0  0  0  0  0  0
   47.6846   55.7173   29.7341 C   0  0  0  0  0  0  0  0  0  0  0  0
   47.7206   54.1824   29.4257 C   0  0  1  0  0  0  0  0  0  0  0  0
   47.2700   53.7095   28.1217 O   0  0  0  0  0  0  0  0  0  0  0  0
   49.0724   53.4514   29.6588 C   0  0  1  0  0  0  0  0  0  0  0  0
   49.5517   53.3442   31.0056 O   0  0  0  0  0  0  0  0  0  0  0  0
   49.0029   52.1708   28.7704 C   0  0  1  0  0  0  0  0  0  0  0  0
   48.8856   50.9248   29.4142 O   0  0  0  0  0  0  0  0  0  0  0  0
   47.9695   52.5537   27.7062 C   0  0  2  0  0  0  0  0  0  0  0  0
   46.2826   60.5336   31.6327 O   0  0  0  0  0  0  0  0  0  0  0  0
   52.4708   52.1761   24.6924 N   0  0  0  0  0  0  0  0  0  0  0  0
   52.3229   51.8526   26.0460 C   0  0  0  0  0  0  0  0  0  0  0  0
   51.0272   52.0189   26.7006 N   0  0  0  0  0  0  0  0  0  0  0  0
   49.9546   52.4898   25.9913 C   0  0  0  0  0  0  0  0  0  0  0  0
   50.1126   52.8148   24.6299 C   0  0  0  0  0  0  0  0  0  0  0  0
   51.4043   52.6494   23.9784 C   0  0  0  0  0  0  0  0  0  0  0  0
   51.5701   52.9856   22.5638 N   0  0  0  0  0  0  0  0  0  0  0  0
   48.8413   53.2822   24.1336 N   0  0  0  0  0  0  0  0  0  0  0  0
   47.9182   53.2392   25.2048 C   0  0  0  0  0  0  0  0  0  0  0  0
   48.5880   52.7495   26.3631 N   0  0  0  0  0  0  0  0  0  0  0  0
  2  1  1  6  0  0  0
  2  3  1  0  0  0  0
  2  5  1  0  0  0  0
  3  4  1  0  0  0  0
  3 17  1  0  0  0  0
  5  6  1  0  0  0  0
  7  6  1  1  0  0  0
  7  8  1  0  0  0  0
  7  9  1  0  0  0  0
 10  9  1  6  0  0  0
 10 11  1  0  0  0  0
 10 12  1  0  0  0  0
 11 16  1  0  0  0  0
 12 13  1  1  0  0  0
 12 14  1  0  0  0  0
 14 15  1  1  0  0  0
 14 16  1  0  0  0  0
 16 27  1  6  0  0  0
 18 19  2  0  0  0  0
 18 23  1  0  0  0  0
 19 20  1  0  0  0  0
 20 21  2  0  0  0  0
 21 22  1  0  0  0  0
 21 27  1  0  0  0  0
 22 23  2  0  0  0  0
 22 25  1  0  0  0  0
 23 24  1  0  0  0  0
 25 26  2  0  0  0  0
 26 27  1  0  0  0  0
M  END
>  <CHROM.1>
-171.87814223,59.43780755,-113.11945452,-170.23175528,-174.48664463,-60.39791058
129.65050065,48.95720929,54.91414047,28.23881924,2.46871795,1.19283514,-0.14056822

>  <Name>
ligand

>  <RI>
0

>  <Rbt.Current_Directory>
/home/itssahil/PROJECTS/Mol_Feturizer/New_Systems/rnas/3GX2

>  <Rbt.Executable>
rbdock ($Id: //depot/dev/client3/rdock/2013.1/src/exe/rbdock.cxx#4 $)

>  <Rbt.Library>
libRbt.so (2013.1, Build901 2013/11/27)

>  <Rbt.Parameter_File>
/export/apps/rDock/src/rDock_2013.1_src/data/scripts/dock_solv.prm

>  <Rbt.Receptor>
prm/pocket_docking_7.prm

>  <SCORE>
-5.24042

>  <SCORE.INTER>
-5.90587

>  <SCORE.INTER.CONST>
1

>  <SCORE.INTER.POLAR>
0

>  <SCORE.INTER.ROT>
7

>  <SCORE.INTER.SOLV>
12.29

>  <SCORE.INTER.VDW>
-16.3006

>  <SCORE.INTER.norm>
-0.218736

>  <SCORE.INTRA>
0.665447

>  <SCORE.INTRA.DIHEDRAL>
-3.19019

>  <SCORE.INTRA.DIHEDRAL.0>
13.9704

>  <SCORE.INTRA.POLAR>
0

>  <SCORE.INTRA.POLAR.0>
0

>  <SCORE.INTRA.REPUL>
0

>  <SCORE.INTRA.REPUL.0>
0

>  <SCORE.INTRA.SOLV>
3.38848

>  <SCORE.INTRA.SOLV.lig_0>
-70.9758

>  <SCORE.INTRA.VDW>
0.566302

>  <SCORE.INTRA.VDW.0>
-2.70686

>  <SCORE.INTRA.norm>
0.0246462

>  <SCORE.RESTR>
0

>  <SCORE.RESTR.CAVITY>
0

>  <SCORE.RESTR.norm>
0

>  <SCORE.SYSTEM>
0

>  <SCORE.SYSTEM.CONST>
0

>  <SCORE.SYSTEM.DIHEDRAL>
0

>  <SCORE.SYSTEM.SOLV>
0

>  <SCORE.SYSTEM.norm>
0

>  <SCORE.heavy>
27

>  <SCORE.norm>
-0.19409

>  <RMSD>
7.576

$$$$
ligand
 OpenBabel11021811483D
libRbt.so/2013.1/901 2013/11/27
 27 29  0  0  0  0  0  0  0  0999 V2000
   46.8730   52.9633   36.4891 N   0  0  0  0  0  0  0  0  0  0  0  0
   45.7354   53.8779   36.4236 C   0  0  2  0  0  0  0  0  0  0  0  0
   44.4720   53.3494   37.1062 C   0  0  0  0  0  0  0  0  0  0  0  0
   44.1719   52.2129   36.9479 O   0  0  0  0  0  0  0  0  0  0  0  0
   45.4618   54.4646   35.0229 C   0  0  0  0  0  0  0  0  0  0  0  0
   46.5794   55.2658   34.2989 C   0  0  0  0  0  0  0  0  0  0  0  0
   46.1983   55.8524   32.9135 C   0  0  2  0  0  0  0  0  0  0  0  0
   47.3538   56.3551   32.1706 N   0  0  0  0  0  0  0  0  0  0  0  0
   45.0358   56.8879   33.0121 C   0  0  0  0  0  0  0  0  0  0  0  0
   44.1711   57.1653   31.7363 C   0  0  1  0  0  0  0  0  0  0  0  0
   44.8269   57.6431   30.5243 O   0  0  0  0  0  0  0  0  0  0  0  0
   43.2475   56.0133   31.2505 C   0  0  1  0  0  0  0  0  0  0  0  0
   42.1520   55.6333   32.0935 O   0  0  0  0  0  0  0  0  0  0  0  0
   42.9811   56.3115   29.7425 C   0  0  1  0  0  0  0  0  0  0  0  0
   41.6882   56.7227   29.3680 O   0  0  0  0  0  0  0  0  0  0  0  0
   44.1770   57.1869   29.3550 C   0  0  2  0  0  0  0  0  0  0  0  0
   43.9882   54.0300   38.2412 O   0  0  0  0  0  0  0  0  0  0  0  0
   46.3414   52.4259   27.8936 N   0  0  0  0  0  0  0  0  0  0  0  0
   45.3878   52.6571   28.8917 C   0  0  0  0  0  0  0  0  0  0  0  0
   44.9151   54.0151   29.1513 N   0  0  0  0  0  0  0  0  0  0  0  0
   45.4023   55.0640   28.4181 C   0  0  0  0  0  0  0  0  0  0  0  0
   46.3632   54.8228   27.4168 C   0  0  0  0  0  0  0  0  0  0  0  0
   46.8344   53.4693   27.1591 C   0  0  0  0  0  0  0  0  0  0  0  0
   47.8319   53.2166   26.1186 N   0  0  0  0  0  0  0  0  0  0  0  0
   46.6997   56.0871   26.8092 N   0  0  0  0  0  0  0  0  0  0  0  0
   45.9378   57.0908   27.4524 C   0  0  0  0  0  0  0  0  0  0  0  0
   45.1269   56.4770   28.4502 N   0  0  0  0  0  0  0  0  0  0  0  0
  2  1  1  6  0  0  0
  2  3  1  0  0  0  0
  2  5  1  0  0  0  0
  3  4  1  0  0  0  0
  3 17  1  0  0  0  0
  5  6  1  0  0  0  0
  7  6  1  1  0  0  0
  7  8  1  0  0  0  0
  7  9  1  0  0  0  0
 10  9  1  1  0  0  0
 10 11  1  0  0  0  0
 10 12  1  0  0  0  0
 11 16  1  0  0  0  0
 12 13  1  1  0  0  0
 12 14  1  0  0  0  0
 14 15  1  1  0  0  0
 14 16  1  0  0  0  0
 16 27  1  6  0  0  0
 18 19  2  0  0  0  0
 18 23  1  0  0  0  0
 19 20  1  0  0  0  0
 20 21  2  0  0  0  0
 21 22  1  0  0  0  0
 21 27  1  0  0  0  0
 22 23  2  0  0  0  0
 22 25  1  0  0  0  0
 23 24  1  0  0  0  0
 25 26  2  0  0  0  0
 26 27  1  0  0  0  0
M  END
>  <CHROM.1>
-42.35771513,-57.86678048,-178.26589181,-168.39736047,-157.10800515,-58.36354639
92.21595168,45.12732716,55.08959778,31.40066769,-1.69344728,0.82287288,-1.33526244

>  <Name>
ligand

>  <RI>
0

>  <Rbt.Current_Directory>
/home/itssahil/PROJECTS/Mol_Feturizer/New_Systems/rnas/3GX2

>  <Rbt.Executable>
rbdock ($Id: //depot/dev/client3/rdock/2013.1/src/exe/rbdock.cxx#4 $)

>  <Rbt.Library>
libRbt.so (2013.1, Build901 2013/11/27)

>  <Rbt.Parameter_File>
/export/apps/rDock/src/rDock_2013.1_src/data/scripts/dock_solv.prm

>  <Rbt.Receptor>
prm/pocket_docking_7.prm

>  <SCORE>
-11.1825

>  <SCORE.INTER>
-7.95332

>  <SCORE.INTER.CONST>
1

>  <SCORE.INTER.POLAR>
0

>  <SCORE.INTER.ROT>
7

>  <SCORE.INTER.SOLV>
11.625

>  <SCORE.INTER.VDW>
-17.4439

>  <SCORE.INTER.norm>
-0.294567

>  <SCORE.INTRA>
-3.22917

>  <SCORE.INTRA.DIHEDRAL>
-7.35309

>  <SCORE.INTRA.DIHEDRAL.0>
13.9704

>  <SCORE.INTRA.POLAR>
0

>  <SCORE.INTRA.POLAR.0>
0

>  <SCORE.INTRA.REPUL>
0

>  <SCORE.INTRA.REPUL.0>
0

>  <SCORE.INTRA.SOLV>
1.05326

>  <SCORE.INTRA.SOLV.lig_0>
-70.9758

>  <SCORE.INTRA.VDW>
-0.0792526

>  <SCORE.INTRA.VDW.0>
-2.70686

>  <SCORE.INTRA.norm>
-0.119599

>  <SCORE.RESTR>
0

>  <SCORE.RESTR.CAVITY>
0

>  <SCORE.RESTR.norm>
0

>  <SCORE.SYSTEM>
0

>  <SCORE.SYSTEM.CONST>
0

>  <SCORE.SYSTEM.DIHEDRAL>
0

>  <SCORE.SYSTEM.SOLV>
0

>  <SCORE.SYSTEM.norm>
0

>  <SCORE.heavy>
27

>  <SCORE.norm>
-0.414166

>  <RMSD>
7.613

$$$$
ligand
 OpenBabel11021811473D
libRbt.so/2013.1/901 2013/11/27
 27 29  0  0  0  0  0  0  0  0999 V2000
   46.4306   57.9019   27.2559 N   0  0  0  0  0  0  0  0  0  0  0  0
   47.1482   56.6348   27.3765 C   0  0  2  0  0  0  0  0  0  0  0  0
   48.2934   56.4706   26.3752 C   0  0  0  0  0  0  0  0  0  0  0  0
   49.3809   56.2365   26.7867 O   0  0  0  0  0  0  0  0  0  0  0  0
   46.2423   55.3886   27.4642 C   0  0  0  0  0  0  0  0  0  0  0  0
   46.8740   54.0067   27.7902 C   0  0  0  0  0  0  0  0  0  0  0  0
   47.4662   53.8563   29.2168 C   0  0  2  0  0  0  0  0  0  0  0  0
   48.3149   54.9836   29.6027 N   0  0  0  0  0  0  0  0  0  0  0  0
   48.1540   52.4720   29.4260 C   0  0  0  0  0  0  0  0  0  0  0  0
   49.2326   52.0085   28.3895 C   0  0  1  0  0  0  0  0  0  0  0  0
   48.8000   51.5220   27.0844 O   0  0  0  0  0  0  0  0  0  0  0  0
   50.3766   53.0115   28.0713 C   0  0  1  0  0  0  0  0  0  0  0  0
   51.3025   53.3252   29.1198 O   0  0  0  0  0  0  0  0  0  0  0  0
   50.9236   52.5780   26.6759 C   0  0  1  0  0  0  0  0  0  0  0  0
   52.2048   51.9982   26.6188 O   0  0  0  0  0  0  0  0  0  0  0  0
   49.7397   51.8172   26.0706 C   0  0  2  0  0  0  0  0  0  0  0  0
   47.9781   56.1218   25.0468 O   0  0  0  0  0  0  0  0  0  0  0  0
   50.4125   55.4558   22.0963 N   0  0  0  0  0  0  0  0  0  0  0  0
   51.3731   55.0036   23.0081 C   0  0  0  0  0  0  0  0  0  0  0  0
   51.0123   54.0130   24.0199 N   0  0  0  0  0  0  0  0  0  0  0  0
   49.7346   53.5238   24.0773 C   0  0  0  0  0  0  0  0  0  0  0  0
   48.7734   53.9857   23.1571 C   0  0  0  0  0  0  0  0  0  0  0  0
   49.1335   54.9735   22.1495 C   0  0  0  0  0  0  0  0  0  0  0  0
   48.1366   55.4538   21.1921 N   0  0  0  0  0  0  0  0  0  0  0  0
   47.5279   53.3154   23.4405 N   0  0  0  0  0  0  0  0  0  0  0  0
   47.7444   52.4496   24.5382 C   0  0  0  0  0  0  0  0  0  0  0  0
   49.1050   52.5628   24.9454 N   0  0  0  0  0  0  0  0  0  0  0  0
  2  1  1  6  0  0  0
  2  3  1  0  0  0  0
  2  5  1  0  0  0  0
  3  4  1  0  0  0  0
  3 17  1  0  0  0  0
  5  6  1  0  0  0  0
  7  6  1  6  0  0  0
  7  8  1  0  0  0  0
  7  9  1  0  0  0  0
 10  9  1  6  0  0  0
 10 11  1  0  0  0  0
 10 12  1  0  0  0  0
 11 16  1  0  0  0  0
 12 13  1  1  0  0  0
 12 14  1  0  0  0  0
 14 15  1  1  0  0  0
 14 16  1  0  0  0  0
 16 27  1  6  0  0  0
 18 19  2  0  0  0  0
 18 23  1  0  0  0  0
 19 20  1  0  0  0  0
 20 21  2  0  0  0  0
 21 22  1  0  0  0  0
 21 27  1  0  0  0  0
 22 23  2  0  0  0  0
 22 25  1  0  0  0  0
 23 24  1  0  0  0  0
 25 26  2  0  0  0  0
 26 27  1  0  0  0  0
M  END
>  <CHROM.1>
124.57331510,-171.64519573,66.97568001,-47.27289814,52.32567309,-75.88120385
149.97078910,48.97012948,54.11620579,26.03065461,1.72178048,-0.83605187,1.87312810

>  <Name>
ligand

>  <RI>
0

>  <Rbt.Current_Directory>
/home/itssahil/PROJECTS/Mol_Feturizer/New_Systems/rnas/3GX2

>  <Rbt.Executable>
rbdock ($Id: //depot/dev/client3/rdock/2013.1/src/exe/rbdock.cxx#4 $)

>  <Rbt.Library>
libRbt.so (2013.1, Build901 2013/11/27)

>  <Rbt.Parameter_File>
/export/apps/rDock/src/rDock_2013.1_src/data/scripts/dock_solv.prm

>  <Rbt.Receptor>
prm/pocket_docking_7.prm

>  <SCORE>
-8.97067

>  <SCORE.INTER>
-5.65283

>  <SCORE.INTER.CONST>
1

>  <SCORE.INTER.POLAR>
0

>  <SCORE.INTER.ROT>
7

>  <SCORE.INTER.SOLV>
15.0601

>  <SCORE.INTER.VDW>
-17.0552

>  <SCORE.INTER.norm>
-0.209364

>  <SCORE.INTRA>
-3.31784

>  <SCORE.INTRA.DIHEDRAL>
-7.15417

>  <SCORE.INTRA.DIHEDRAL.0>
13.9704

>  <SCORE.INTRA.POLAR>
0

>  <SCORE.INTRA.POLAR.0>
0

>  <SCORE.INTRA.REPUL>
0

>  <SCORE.INTRA.REPUL.0>
0

>  <SCORE.INTRA.SOLV>
5.60174

>  <SCORE.INTRA.SOLV.lig_0>
-70.9758

>  <SCORE.INTRA.VDW>
-2.54163

>  <SCORE.INTRA.VDW.0>
-2.70686

>  <SCORE.INTRA.norm>
-0.122883

>  <SCORE.RESTR>
0

>  <SCORE.RESTR.CAVITY>
0

>  <SCORE.RESTR.norm>
0

>  <SCORE.SYSTEM>
0

>  <SCORE.SYSTEM.CONST>
0

>  <SCORE.SYSTEM.DIHEDRAL>
0

>  <SCORE.SYSTEM.SOLV>
0

>  <SCORE.SYSTEM.norm>
0

>  <SCORE.heavy>
27

>  <SCORE.norm>
-0.332247

>  <RMSD>
7.767

$$$$
ligand
 OpenBabel11021811483D
libRbt.so/2013.1/901 2013/11/27
 27 29  0  0  0  0  0  0  0  0999 V2000
   45.3989   54.2951   35.4435 N   0  0  0  0  0  0  0  0  0  0  0  0
   44.1674   54.5773   34.7095 C   0  0  2  0  0  0  0  0  0  0  0  0
   42.8922   54.1919   35.4623 C   0  0  0  0  0  0  0  0  0  0  0  0
   41.8426   54.4673   34.9833 O   0  0  0  0  0  0  0  0  0  0  0  0
   44.1686   54.0973   33.2429 C   0  0  0  0  0  0  0  0  0  0  0  0
   43.2247   54.7810   32.2149 C   0  0  0  0  0  0  0  0  0  0  0  0
   43.2018   54.1493   30.7975 C   0  0  2  0  0  0  0  0  0  0  0  0
   42.6479   52.7954   30.7864 N   0  0  0  0  0  0  0  0  0  0  0  0
   44.5857   54.2509   30.0850 C   0  0  0  0  0  0  0  0  0  0  0  0
   45.1504   55.6719   29.7470 C   0  0  1  0  0  0  0  0  0  0  0  0
   46.5301   55.7974   29.2910 O   0  0  0  0  0  0  0  0  0  0  0  0
   44.3300   56.5332   28.7465 C   0  0  1  0  0  0  0  0  0  0  0  0
   43.0322   56.9824   29.1577 O   0  0  0  0  0  0  0  0  0  0  0  0
   45.3460   57.5660   28.1678 C   0  0  1  0  0  0  0  0  0  0  0  0
   45.2042   58.9150   28.5435 O   0  0  0  0  0  0  0  0  0  0  0  0
   46.6946   56.8741   28.3901 C   0  0  2  0  0  0  0  0  0  0  0  0
   42.9585   53.1431   36.4011 O   0  0  0  0  0  0  0  0  0  0  0  0
   46.7037   53.1589   24.4298 N   0  0  0  0  0  0  0  0  0  0  0  0
   45.8676   53.2058   25.5512 C   0  0  0  0  0  0  0  0  0  0  0  0
   46.0074   54.2878   26.5232 N   0  0  0  0  0  0  0  0  0  0  0  0
   46.9550   55.2590   26.3385 C   0  0  0  0  0  0  0  0  0  0  0  0
   47.7936   55.2032   25.2081 C   0  0  0  0  0  0  0  0  0  0  0  0
   47.6542   54.1242   24.2403 C   0  0  0  0  0  0  0  0  0  0  0  0
   48.5239   54.0651   23.0649 N   0  0  0  0  0  0  0  0  0  0  0  0
   48.6887   56.3332   25.2620 N   0  0  0  0  0  0  0  0  0  0  0  0
   48.3857   57.0677   26.4325 C   0  0  0  0  0  0  0  0  0  0  0  0
   47.3138   56.4196   27.1115 N   0  0  0  0  0  0  0  0  0  0  0  0
  2  1  1  1  0  0  0
  2  3  1  0  0  0  0
  2  5  1  0  0  0  0
  3  4  1  0  0  0  0
  3 17  1  0  0  0  0
  5  6  1  0  0  0  0
  7  6  1  1  0  0  0
  7  8  1  0  0  0  0
  7  9  1  0  0  0  0
 10  9  1  6  0  0  0
 10 11  1  0  0  0  0
 10 12  1  0  0  0  0
 11 16  1  0  0  0  0
 12 13  1  1  0  0  0
 12 14  1  0  0  0  0
 14 15  1  1  0  0  0
 14 16  1  0  0  0  0
 16 27  1  6  0  0  0
 18 19  2  0  0  0  0
 18 23  1  0  0  0  0
 19 20  1  0  0  0  0
 20 21  2  0  0  0  0
 21 22  1  0  0  0  0
 21 27  1  0  0  0  0
 22 23  2  0  0  0  0
 22 25  1  0  0  0  0
 23 24  1  0  0  0  0
 25 26  2  0  0  0  0
 26 27  1  0  0  0  0
M  END
>  <CHROM.1>
174.94086215,-156.19900279,-174.72315939,65.72330745,-63.90788686,169.74052177
45.72963431,45.30397558,55.13281365,29.40679915,-2.96502252,-1.13991024,-2.83268287

>  <Name>
ligand

>  <RI>
0

>  <Rbt.Current_Directory>
/home/itssahil/PROJECTS/Mol_Feturizer/New_Systems/rnas/3GX2

>  <Rbt.Executable>
rbdock ($Id: //depot/dev/client3/rdock/2013.1/src/exe/rbdock.cxx#4 $)

>  <Rbt.Library>
libRbt.so (2013.1, Build901 2013/11/27)

>  <Rbt.Parameter_File>
/export/apps/rDock/src/rDock_2013.1_src/data/scripts/dock_solv.prm

>  <Rbt.Receptor>
prm/pocket_docking_7.prm

>  <SCORE>
-7.38721

>  <SCORE.INTER>
-3.89716

>  <SCORE.INTER.CONST>
1

>  <SCORE.INTER.POLAR>
0

>  <SCORE.INTER.ROT>
7

>  <SCORE.INTER.SOLV>
13.46

>  <SCORE.INTER.VDW>
-15.3515

>  <SCORE.INTER.norm>
-0.144339

>  <SCORE.INTRA>
-3.49006

>  <SCORE.INTRA.DIHEDRAL>
-7.18857

>  <SCORE.INTRA.DIHEDRAL.0>
13.9704

>  <SCORE.INTRA.POLAR>
0

>  <SCORE.INTRA.POLAR.0>
0

>  <SCORE.INTRA.REPUL>
0

>  <SCORE.INTRA.REPUL.0>
0

>  <SCORE.INTRA.SOLV>
-0.0610385

>  <SCORE.INTRA.SOLV.lig_0>
-70.9758

>  <SCORE.INTRA.VDW>
0.13475

>  <SCORE.INTRA.VDW.0>
-2.70686

>  <SCORE.INTRA.norm>
-0.129261

>  <SCORE.RESTR>
0

>  <SCORE.RESTR.CAVITY>
0

>  <SCORE.RESTR.norm>
0

>  <SCORE.SYSTEM>
0

>  <SCORE.SYSTEM.CONST>
0

>  <SCORE.SYSTEM.DIHEDRAL>
0

>  <SCORE.SYSTEM.SOLV>
0

>  <SCORE.SYSTEM.norm>
0

>  <SCORE.heavy>
27

>  <SCORE.norm>
-0.2736

>  <RMSD>
7.777

$$$$
ligand
 OpenBabel11021811483D
libRbt.so/2013.1/901 2013/11/27
 27 29  0  0  0  0  0  0  0  0999 V2000
   47.2937   59.7843   32.0344 N   0  0  0  0  0  0  0  0  0  0  0  0
   47.8463   58.7698   32.9291 C   0  0  2  0  0  0  0  0  0  0  0  0
   49.3296   58.9648   33.2502 C   0  0  0  0  0  0  0  0  0  0  0  0
   49.8100   58.3315   34.1306 O   0  0  0  0  0  0  0  0  0  0  0  0
   47.5000   57.3160   32.5447 C   0  0  0  0  0  0  0  0  0  0  0  0
   47.6897   56.8489   31.0747 C   0  0  0  0  0  0  0  0  0  0  0  0
   46.6452   57.3822   30.0583 C   0  0  2  0  0  0  0  0  0  0  0  0
   45.2784   56.9694   30.3768 N   0  0  0  0  0  0  0  0  0  0  0  0
   47.0495   57.0762   28.5831 C   0  0  0  0  0  0  0  0  0  0  0  0
   47.5648   55.6398   28.2315 C   0  0  1  0  0  0  0  0  0  0  0  0
   47.0086   54.4928   28.9402 O   0  0  0  0  0  0  0  0  0  0  0  0
   47.5260   55.2276   26.7333 C   0  0  1  0  0  0  0  0  0  0  0  0
   48.3907   55.9226   25.8254 O   0  0  0  0  0  0  0  0  0  0  0  0
   47.5222   53.6674   26.7388 C   0  0  1  0  0  0  0  0  0  0  0  0
   48.6780   53.0017   26.2897 O   0  0  0  0  0  0  0  0  0  0  0  0
   46.9706   53.3359   28.1290 C   0  0  2  0  0  0  0  0  0  0  0  0
   50.1711   59.4819   32.2452 O   0  0  0  0  0  0  0  0  0  0  0  0
   43.1672   50.9997   25.0366 N   0  0  0  0  0  0  0  0  0  0  0  0
   44.4449   51.4162   24.6455 C   0  0  0  0  0  0  0  0  0  0  0  0
   45.3437   52.0315   25.6193 N   0  0  0  0  0  0  0  0  0  0  0  0
   44.9392   52.2006   26.9166 C   0  0  0  0  0  0  0  0  0  0  0  0
   43.6510   51.7804   27.3014 C   0  0  0  0  0  0  0  0  0  0  0  0
   42.7554   51.1679   26.3301 C   0  0  0  0  0  0  0  0  0  0  0  0
   41.4171   50.7298   26.7282 N   0  0  0  0  0  0  0  0  0  0  0  0
   43.4871   52.0754   28.7039 N   0  0  0  0  0  0  0  0  0  0  0  0
   44.6830   52.6780   29.1602 C   0  0  0  0  0  0  0  0  0  0  0  0
   45.5950   52.7624   28.0688 N   0  0  0  0  0  0  0  0  0  0  0  0
  2  1  1  6  0  0  0
  2  3  1  0  0  0  0
  2  5  1  0  0  0  0
  3  4  1  0  0  0  0
  3 17  1  0  0  0  0
  5  6  1  0  0  0  0
  7  6  1  1  0  0  0
  7  8  1  0  0  0  0
  7  9  1  0  0  0  0
 10  9  1  6  0  0  0
 10 11  1  0  0  0  0
 10 12  1  0  0  0  0
 11 16  1  0  0  0  0
 12 13  1  6  0  0  0
 12 14  1  0  0  0  0
 14 15  1  1  0  0  0
 14 16  1  0  0  0  0
 16 27  1  6  0  0  0
 18 19  2  0  0  0  0
 18 23  1  0  0  0  0
 19 20  1  0  0  0  0
 20 21  2  0  0  0  0
 21 22  1  0  0  0  0
 21 27  1  0  0  0  0
 22 23  2  0  0  0  0
 22 25  1  0  0  0  0
 23 24  1  0  0  0  0
 25 26  2  0  0  0  0
 26 27  1  0  0  0  0
M  END
>  <CHROM.1>
167.73903971,48.05881844,-73.49265013,-60.85626002,45.52993787,33.96847033
140.30618990,46.46463990,54.91067967,28.82193737,1.04103854,0.52105567,1.00430041

>  <Name>
ligand

>  <RI>
0

>  <Rbt.Current_Directory>
/home/itssahil/PROJECTS/Mol_Feturizer/New_Systems/rnas/3GX2

>  <Rbt.Executable>
rbdock ($Id: //depot/dev/client3/rdock/2013.1/src/exe/rbdock.cxx#4 $)

>  <Rbt.Library>
libRbt.so (2013.1, Build901 2013/11/27)

>  <Rbt.Parameter_File>
/export/apps/rDock/src/rDock_2013.1_src/data/scripts/dock_solv.prm

>  <Rbt.Receptor>
prm/pocket_docking_8.prm

>  <SCORE>
-10.1729

>  <SCORE.INTER>
-9.80286

>  <SCORE.INTER.CONST>
1

>  <SCORE.INTER.POLAR>
0

>  <SCORE.INTER.ROT>
7

>  <SCORE.INTER.SOLV>
15.3262

>  <SCORE.INTER.VDW>
-19.9107

>  <SCORE.INTER.norm>
-0.363069

>  <SCORE.INTRA>
-0.370091

>  <SCORE.INTRA.DIHEDRAL>
-5.14403

>  <SCORE.INTRA.DIHEDRAL.0>
13.9704

>  <SCORE.INTRA.POLAR>
0

>  <SCORE.INTRA.POLAR.0>
0

>  <SCORE.INTRA.REPUL>
0

>  <SCORE.INTRA.REPUL.0>
0

>  <SCORE.INTRA.SOLV>
3.57577

>  <SCORE.INTRA.SOLV.lig_0>
-70.9758

>  <SCORE.INTRA.VDW>
0.414036

>  <SCORE.INTRA.VDW.0>
-2.70686

>  <SCORE.INTRA.norm>
-0.0137071

>  <SCORE.RESTR>
0

>  <SCORE.RESTR.CAVITY>
0

>  <SCORE.RESTR.norm>
0

>  <SCORE.SYSTEM>
0

>  <SCORE.SYSTEM.CONST>
0

>  <SCORE.SYSTEM.DIHEDRAL>
0

>  <SCORE.SYSTEM.SOLV>
0

>  <SCORE.SYSTEM.norm>
0

>  <SCORE.heavy>
27

>  <SCORE.norm>
-0.376776

>  <RMSD>
7.792

$$$$
ligand
 OpenBabel11021811473D
libRbt.so/2013.1/901 2013/11/27
 27 29  0  0  0  0  0  0  0  0999 V2000
   44.4584   54.0853   34.5410 N   0  0  0  0  0  0  0  0  0  0  0  0
   45.2913   53.3078   35.4558 C   0  0  2  0  0  0  0  0  0  0  0  0
   45.1784   53.7397   36.9193 C   0  0  0  0  0  0  0  0  0  0  0  0
   44.1010   53.9413   37.3725 O   0  0  0  0  0  0  0  0  0  0  0  0
   46.7519   53.1212   34.9945 C   0  0  0  0  0  0  0  0  0  0  0  0
   47.6547   54.3700   34.7933 C   0  0  0  0  0  0  0  0  0  0  0  0
   49.0821   54.0894   34.2528 C   0  0  2  0  0  0  0  0  0  0  0  0
   49.9226   55.2862   34.2161 N   0  0  0  0  0  0  0  0  0  0  0  0
   49.0574   53.3165   32.8980 C   0  0  0  0  0  0  0  0  0  0  0  0
   48.6817   54.1013   31.5960 C   0  0  1  0  0  0  0  0  0  0  0  0
   49.7478   54.5859   30.7266 O   0  0  0  0  0  0  0  0  0  0  0  0
   47.6732   53.4175   30.6309 C   0  0  1  0  0  0  0  0  0  0  0  0
   46.3271   53.2353   31.0890 O   0  0  0  0  0  0  0  0  0  0  0  0
   47.9222   54.0824   29.2417 C   0  0  1  0  0  0  0  0  0  0  0  0
   46.9311   54.9424   28.7329 O   0  0  0  0  0  0  0  0  0  0  0  0
   49.3581   54.6012   29.3680 C   0  0  2  0  0  0  0  0  0  0  0  0
   46.2380   53.4277   37.7944 O   0  0  0  0  0  0  0  0  0  0  0  0
   49.9640   50.9668   25.3792 N   0  0  0  0  0  0  0  0  0  0  0  0
   48.7651   51.4552   25.9110 C   0  0  0  0  0  0  0  0  0  0  0  0
   48.7910   52.4384   26.9917 N   0  0  0  0  0  0  0  0  0  0  0  0
   49.9876   52.8853   27.4852 C   0  0  0  0  0  0  0  0  0  0  0  0
   51.1895   52.3872   26.9455 C   0  0  0  0  0  0  0  0  0  0  0  0
   51.1629   51.4068   25.8691 C   0  0  0  0  0  0  0  0  0  0  0  0
   52.4106   50.8888   25.3066 N   0  0  0  0  0  0  0  0  0  0  0  0
   52.2847   53.0173   27.6417 N   0  0  0  0  0  0  0  0  0  0  0  0
   51.7349   53.8954   28.6051 C   0  0  0  0  0  0  0  0  0  0  0  0
   50.3140   53.8293   28.5224 N   0  0  0  0  0  0  0  0  0  0  0  0
  2  1  1  6  0  0  0
  2  3  1  0  0  0  0
  2  5  1  0  0  0  0
  3  4  1  0  0  0  0
  3 17  1  0  0  0  0
  5  6  1  0  0  0  0
  7  6  1  6  0  0  0
  7  8  1  0  0  0  0
  7  9  1  0  0  0  0
 10  9  1  1  0  0  0
 10 11  1  0  0  0  0
 10 12  1  0  0  0  0
 11 16  1  0  0  0  0
 12 13  1  1  0  0  0
 12 14  1  0  0  0  0
 14 15  1  1  0  0  0
 14 16  1  0  0  0  0
 16 27  1  6  0  0  0
 18 19  2  0  0  0  0
 18 23  1  0  0  0  0
 19 20  1  0  0  0  0
 20 21  2  0  0  0  0
 21 22  1  0  0  0  0
 21 27  1  0  0  0  0
 22 23  2  0  0  0  0
 22 25  1  0  0  0  0
 23 24  1  0  0  0  0
 25 26  2  0  0  0  0
 26 27  1  0  0  0  0
M  END
>  <CHROM.1>
45.22881878,61.12671810,-176.72554659,-174.12500800,75.62339927,98.16848473
135.36204247,48.46784478,53.39723860,30.99837395,2.03769881,0.15649087,1.32789473

>  <Name>
ligand

>  <RI>
0

>  <Rbt.Current_Directory>
/home/itssahil/PROJECTS/Mol_Feturizer/New_Systems/rnas/3GX2

>  <Rbt.Executable>
rbdock ($Id: //depot/dev/client3/rdock/2013.1/src/exe/rbdock.cxx#4 $)

>  <Rbt.Library>
libRbt.so (2013.1, Build901 2013/11/27)

>  <Rbt.Parameter_File>
/export/apps/rDock/src/rDock_2013.1_src/data/scripts/dock_solv.prm

>  <Rbt.Receptor>
prm/pocket_docking_6.prm

>  <SCORE>
-7.81046

>  <SCORE.INTER>
-7.15843

>  <SCORE.INTER.CONST>
1

>  <SCORE.INTER.POLAR>
0

>  <SCORE.INTER.ROT>
7

>  <SCORE.INTER.SOLV>
15.7688

>  <SCORE.INTER.VDW>
-18.2952

>  <SCORE.INTER.norm>
-0.265127

>  <SCORE.INTRA>
-0.652027

>  <SCORE.INTRA.DIHEDRAL>
-4.18349

>  <SCORE.INTRA.DIHEDRAL.0>
13.9704

>  <SCORE.INTRA.POLAR>
0

>  <SCORE.INTRA.POLAR.0>
0

>  <SCORE.INTRA.REPUL>
0

>  <SCORE.INTRA.REPUL.0>
0

>  <SCORE.INTRA.SOLV>
0.944228

>  <SCORE.INTRA.SOLV.lig_0>
-70.9758

>  <SCORE.INTRA.VDW>
0.967603

>  <SCORE.INTRA.VDW.0>
-2.70686

>  <SCORE.INTRA.norm>
-0.0241491

>  <SCORE.RESTR>
0

>  <SCORE.RESTR.CAVITY>
0

>  <SCORE.RESTR.norm>
0

>  <SCORE.SYSTEM>
0

>  <SCORE.SYSTEM.CONST>
0

>  <SCORE.SYSTEM.DIHEDRAL>
0

>  <SCORE.SYSTEM.SOLV>
0

>  <SCORE.SYSTEM.norm>
0

>  <SCORE.heavy>
27

>  <SCORE.norm>
-0.289276

>  <RMSD>
7.991

$$$$
ligand
 OpenBabel11021811473D
libRbt.so/2013.1/901 2013/11/27
 27 29  0  0  0  0  0  0  0  0999 V2000
   44.9020   53.7423   33.4722 N   0  0  0  0  0  0  0  0  0  0  0  0
   45.8602   54.7466   33.0157 C   0  0  2  0  0  0  0  0  0  0  0  0
   45.2540   56.1364   32.8096 C   0  0  0  0  0  0  0  0  0  0  0  0
   44.1838   56.2221   32.3055 O   0  0  0  0  0  0  0  0  0  0  0  0
   46.7502   54.2977   31.8378 C   0  0  0  0  0  0  0  0  0  0  0  0
   46.0852   53.7797   30.5323 C   0  0  0  0  0  0  0  0  0  0  0  0
   47.0552   53.4539   29.3655 C   0  0  2  0  0  0  0  0  0  0  0  0
   46.3594   53.1303   28.1200 N   0  0  0  0  0  0  0  0  0  0  0  0
   48.1215   52.3882   29.7661 C   0  0  0  0  0  0  0  0  0  0  0  0
   49.2843   52.0800   28.7636 C   0  0  1  0  0  0  0  0  0  0  0  0
   48.9658   51.5017   27.4631 O   0  0  0  0  0  0  0  0  0  0  0  0
   50.2612   53.2456   28.4424 C   0  0  1  0  0  0  0  0  0  0  0  0
   51.1002   53.7264   29.5006 O   0  0  0  0  0  0  0  0  0  0  0  0
   50.9031   52.8741   27.0698 C   0  0  1  0  0  0  0  0  0  0  0  0
   52.2613   52.5053   27.0530 O   0  0  0  0  0  0  0  0  0  0  0  0
   49.8702   51.9206   26.4609 C   0  0  2  0  0  0  0  0  0  0  0  0
   45.7127   57.1950   33.6187 O   0  0  0  0  0  0  0  0  0  0  0  0
   50.0795   55.4724   22.3586 N   0  0  0  0  0  0  0  0  0  0  0  0
   51.0827   55.1909   23.2931 C   0  0  0  0  0  0  0  0  0  0  0  0
   50.8506   54.1968   24.3385 N   0  0  0  0  0  0  0  0  0  0  0  0
   49.6524   53.5373   24.4055 C   0  0  0  0  0  0  0  0  0  0  0  0
   48.6474   53.8280   23.4623 C   0  0  0  0  0  0  0  0  0  0  0  0
   48.8792   54.8194   22.4211 C   0  0  0  0  0  0  0  0  0  0  0  0
   47.8367   55.1220   21.4398 N   0  0  0  0  0  0  0  0  0  0  0  0
   47.5035   53.0019   23.7620 N   0  0  0  0  0  0  0  0  0  0  0  0
   47.8248   52.2144   24.8926 C   0  0  0  0  0  0  0  0  0  0  0  0
   49.1517   52.5301   25.3045 N   0  0  0  0  0  0  0  0  0  0  0  0
  2  1  1  6  0  0  0
  2  3  1  0  0  0  0
  2  5  1  0  0  0  0
  3  4  1  0  0  0  0
  3 17  1  0  0  0  0
  5  6  1  0  0  0  0
  7  6  1  1  0  0  0
  7  8  1  0  0  0  0
  7  9  1  0  0  0  0
 10  9  1  6  0  0  0
 10 11  1  0  0  0  0
 10 12  1  0  0  0  0
 11 16  1  0  0  0  0
 12 13  1  1  0  0  0
 12 14  1  0  0  0  0
 14 15  1  1  0  0  0
 14 16  1  0  0  0  0
 16 27  1  6  0  0  0
 18 19  2  0  0  0  0
 18 23  1  0  0  0  0
 19 20  1  0  0  0  0
 20 21  2  0  0  0  0
 21 22  1  0  0  0  0
 21 27  1  0  0  0  0
 22 23  2  0  0  0  0
 22 25  1  0  0  0  0
 23 24  1  0  0  0  0
 25 26  2  0  0  0  0
 26 27  1  0  0  0  0
M  END
>  <CHROM.1>
-41.02595141,55.18037336,175.49615261,-172.94931369,-172.42875619,-63.71605433
151.54867962,48.29076721,53.82380222,27.73850757,2.07974905,-0.56806033,1.72631741

>  <Name>
ligand

>  <RI>
0

>  <Rbt.Current_Directory>
/home/itssahil/PROJECTS/Mol_Feturizer/New_Systems/rnas/3GX2

>  <Rbt.Executable>
rbdock ($Id: //depot/dev/client3/rdock/2013.1/src/exe/rbdock.cxx#4 $)

>  <Rbt.Library>
libRbt.so (2013.1, Build901 2013/11/27)

>  <Rbt.Parameter_File>
/export/apps/rDock/src/rDock_2013.1_src/data/scripts/dock_solv.prm

>  <Rbt.Receptor>
prm/pocket_docking_6.prm

>  <SCORE>
-8.57206

>  <SCORE.INTER>
-5.39742

>  <SCORE.INTER.CONST>
1

>  <SCORE.INTER.POLAR>
0

>  <SCORE.INTER.ROT>
7

>  <SCORE.INTER.SOLV>
13.3976

>  <SCORE.INTER.VDW>
-16.3308

>  <SCORE.INTER.norm>
-0.199905

>  <SCORE.INTRA>
-3.1748

>  <SCORE.INTRA.DIHEDRAL>
-8.98391

>  <SCORE.INTRA.DIHEDRAL.0>
13.9704

>  <SCORE.INTRA.POLAR>
0

>  <SCORE.INTRA.POLAR.0>
0

>  <SCORE.INTRA.REPUL>
0

>  <SCORE.INTRA.REPUL.0>
0

>  <SCORE.INTRA.SOLV>
1.99197

>  <SCORE.INTRA.SOLV.lig_0>
-70.9758

>  <SCORE.INTRA.VDW>
0.321164

>  <SCORE.INTRA.VDW.0>
-2.70686

>  <SCORE.INTRA.norm>
-0.117585

>  <SCORE.RESTR>
0.000166436

>  <SCORE.RESTR.CAVITY>
0.000166436

>  <SCORE.RESTR.norm>
6.16431e-06

>  <SCORE.SYSTEM>
0

>  <SCORE.SYSTEM.CONST>
0

>  <SCORE.SYSTEM.DIHEDRAL>
0

>  <SCORE.SYSTEM.SOLV>
0

>  <SCORE.SYSTEM.norm>
0

>  <SCORE.heavy>
27

>  <SCORE.norm>
-0.317484

>  <RMSD>
8.031

$$$$
ligand
 OpenBabel11021811483D
libRbt.so/2013.1/901 2013/11/27
 27 29  0  0  0  0  0  0  0  0999 V2000
   46.6227   54.5785   33.2963 N   0  0  0  0  0  0  0  0  0  0  0  0
   45.7221   55.4477   34.0503 C   0  0  2  0  0  0  0  0  0  0  0  0
   44.5372   54.7159   34.6841 C   0  0  0  0  0  0  0  0  0  0  0  0
   44.3226   54.8733   35.8400 O   0  0  0  0  0  0  0  0  0  0  0  0
   45.3077   56.7386   33.3135 C   0  0  0  0  0  0  0  0  0  0  0  0
   46.4012   57.7516   32.8739 C   0  0  0  0  0  0  0  0  0  0  0  0
   47.2658   57.3242   31.6581 C   0  0  2  0  0  0  0  0  0  0  0  0
   48.5157   58.0775   31.5554 N   0  0  0  0  0  0  0  0  0  0  0  0
   46.4481   57.3103   30.3298 C   0  0  0  0  0  0  0  0  0  0  0  0
   47.0029   56.4871   29.1187 C   0  0  1  0  0  0  0  0  0  0  0  0
   46.9809   55.0301   29.1810 O   0  0  0  0  0  0  0  0  0  0  0  0
   46.4240   56.8252   27.7164 C   0  0  1  0  0  0  0  0  0  0  0  0
   46.7158   58.1162   27.1655 O   0  0  0  0  0  0  0  0  0  0  0  0
   46.6787   55.5521   26.8513 C   0  0  1  0  0  0  0  0  0  0  0  0
   47.6425   55.6294   25.8286 O   0  0  0  0  0  0  0  0  0  0  0  0
   46.8054   54.4475   27.9052 C   0  0  2  0  0  0  0  0  0  0  0  0
   43.4856   54.2916   33.8476 O   0  0  0  0  0  0  0  0  0  0  0  0
   43.7483   51.0588   24.9629 N   0  0  0  0  0  0  0  0  0  0  0  0
   44.8569   51.7967   24.5324 C   0  0  0  0  0  0  0  0  0  0  0  0
   45.5653   52.6662   25.4689 N   0  0  0  0  0  0  0  0  0  0  0  0
   45.1477   52.7599   26.7696 C   0  0  0  0  0  0  0  0  0  0  0  0
   44.0299   52.0153   27.1942 C   0  0  0  0  0  0  0  0  0  0  0  0
   43.3239   51.1495   26.2601 C   0  0  0  0  0  0  0  0  0  0  0  0
   42.1630   50.3745   26.6996 N   0  0  0  0  0  0  0  0  0  0  0  0
   43.8105   52.2995   28.5913 N   0  0  0  0  0  0  0  0  0  0  0  0
   44.8010   53.2214   29.0044 C   0  0  0  0  0  0  0  0  0  0  0  0
   45.6396   53.5172   27.8912 N   0  0  0  0  0  0  0  0  0  0  0  0
  2  1  1  6  0  0  0
  2  3  1  0  0  0  0
  2  5  1  0  0  0  0
  3  4  1  0  0  0  0
  3 17  1  0  0  0  0
  5  6  1  0  0  0  0
  7  6  1  1  0  0  0
  7  8  1  0  0  0  0
  7  9  1  0  0  0  0
 10  9  1  1  0  0  0
 10 11  1  0  0  0  0
 10 12  1  0  0  0  0
 11 16  1  0  0  0  0
 12 13  1  6  0  0  0
 12 14  1  0  0  0  0
 14 15  1  1  0  0  0
 14 16  1  0  0  0  0
 16 27  1  1  0  0  0
 18 19  2  0  0  0  0
 18 23  1  0  0  0  0
 19 20  1  0  0  0  0
 20 21  2  0  0  0  0
 21 22  1  0  0  0  0
 21 27  1  0  0  0  0
 22 23  2  0  0  0  0
 22 25  1  0  0  0  0
 23 24  1  0  0  0  0
 25 26  2  0  0  0  0
 26 27  1  0  0  0  0
M  END
>  <CHROM.1>
128.42801772,-59.92830471,73.77135607,-161.66424913,-160.67834049,70.82889005
179.13634759,45.57711472,54.66343632,29.43563785,1.34019327,0.92120884,1.28545596

>  <Name>
ligand

>  <RI>
0

>  <Rbt.Current_Directory>
/home/itssahil/PROJECTS/Mol_Feturizer/New_Systems/rnas/3GX2

>  <Rbt.Executable>
rbdock ($Id: //depot/dev/client3/rdock/2013.1/src/exe/rbdock.cxx#4 $)

>  <Rbt.Library>
libRbt.so (2013.1, Build901 2013/11/27)

>  <Rbt.Parameter_File>
/export/apps/rDock/src/rDock_2013.1_src/data/scripts/dock_solv.prm

>  <Rbt.Receptor>
prm/pocket_docking_8.prm

>  <SCORE>
-10.2587

>  <SCORE.INTER>
-8.41449

>  <SCORE.INTER.CONST>
1

>  <SCORE.INTER.POLAR>
0

>  <SCORE.INTER.ROT>
7

>  <SCORE.INTER.SOLV>
15.62

>  <SCORE.INTER.VDW>
-19.083

>  <SCORE.INTER.norm>
-0.311648

>  <SCORE.INTRA>
-1.85342

>  <SCORE.INTRA.DIHEDRAL>
-5.44986

>  <SCORE.INTRA.DIHEDRAL.0>
13.9704

>  <SCORE.INTRA.POLAR>
0

>  <SCORE.INTRA.POLAR.0>
0

>  <SCORE.INTRA.REPUL>
0

>  <SCORE.INTRA.REPUL.0>
0

>  <SCORE.INTRA.SOLV>
1.34666

>  <SCORE.INTRA.SOLV.lig_0>
-70.9758

>  <SCORE.INTRA.VDW>
0.198185

>  <SCORE.INTRA.VDW.0>
-2.70686

>  <SCORE.INTRA.norm>
-0.068645

>  <SCORE.RESTR>
0.00920034

>  <SCORE.RESTR.CAVITY>
0.00920034

>  <SCORE.RESTR.norm>
0.000340753

>  <SCORE.SYSTEM>
0

>  <SCORE.SYSTEM.CONST>
0

>  <SCORE.SYSTEM.DIHEDRAL>
0

>  <SCORE.SYSTEM.SOLV>
0

>  <SCORE.SYSTEM.norm>
0

>  <SCORE.heavy>
27

>  <SCORE.norm>
-0.379952

>  <RMSD>
8.068

$$$$
ligand
 OpenBabel11021811483D
libRbt.so/2013.1/901 2013/11/27
 27 29  0  0  0  0  0  0  0  0999 V2000
   47.6214   55.7219   32.9469 N   0  0  0  0  0  0  0  0  0  0  0  0
   47.5582   55.4473   34.3806 C   0  0  2  0  0  0  0  0  0  0  0  0
   48.9055   55.0741   35.0025 C   0  0  0  0  0  0  0  0  0  0  0  0
   49.8538   54.9842   34.2958 O   0  0  0  0  0  0  0  0  0  0  0  0
   46.4168   54.4992   34.8041 C   0  0  0  0  0  0  0  0  0  0  0  0
   44.9413   54.9328   34.5805 C   0  0  0  0  0  0  0  0  0  0  0  0
   43.8630   53.9630   35.1330 C   0  0  2  0  0  0  0  0  0  0  0  0
   44.0317   53.6760   36.5575 N   0  0  0  0  0  0  0  0  0  0  0  0
   43.7252   52.6770   34.2611 C   0  0  0  0  0  0  0  0  0  0  0  0
   42.7762   52.7156   33.0161 C   0  0  1  0  0  0  0  0  0  0  0  0
   43.0946   53.6091   31.9082 O   0  0  0  0  0  0  0  0  0  0  0  0
   42.4526   51.3550   32.3379 C   0  0  1  0  0  0  0  0  0  0  0  0
   41.6827   50.4023   33.0828 O   0  0  0  0  0  0  0  0  0  0  0  0
   42.0177   51.7164   30.8838 C   0  0  1  0  0  0  0  0  0  0  0  0
   40.6641   51.5478   30.5372 O   0  0  0  0  0  0  0  0  0  0  0  0
   42.6725   53.0840   30.6656 C   0  0  2  0  0  0  0  0  0  0  0  0
   49.1006   55.3179   36.3766 O   0  0  0  0  0  0  0  0  0  0  0  0
   44.3758   51.3628   25.8052 N   0  0  0  0  0  0  0  0  0  0  0  0
   43.1098   51.1864   26.3752 C   0  0  0  0  0  0  0  0  0  0  0  0
   42.8252   51.7210   27.7050 N   0  0  0  0  0  0  0  0  0  0  0  0
   43.7953   52.3970   28.3956 C   0  0  0  0  0  0  0  0  0  0  0  0
   45.0674   52.5686   27.8155 C   0  0  0  0  0  0  0  0  0  0  0  0
   45.3505   52.0349   26.4905 C   0  0  0  0  0  0  0  0  0  0  0  0
   46.6711   52.2129   25.8857 N   0  0  0  0  0  0  0  0  0  0  0  0
   45.8859   53.3049   28.7475 N   0  0  0  0  0  0  0  0  0  0  0  0
   45.1000   53.5732   29.8929 C   0  0  0  0  0  0  0  0  0  0  0  0
   43.8019   53.0208   29.6934 N   0  0  0  0  0  0  0  0  0  0  0  0
  2  1  1  6  0  0  0
  2  3  1  0  0  0  0
  2  5  1  0  0  0  0
  3  4  1  0  0  0  0
  3 17  1  0  0  0  0
  5  6  1  0  0  0  0
  7  6  1  6  0  0  0
  7  8  1  0  0  0  0
  7  9  1  0  0  0  0
 10  9  1  1  0  0  0
 10 11  1  0  0  0  0
 10 12  1  0  0  0  0
 11 16  1  0  0  0  0
 12 13  1  1  0  0  0
 12 14  1  0  0  0  0
 14 15  1  1  0  0  0
 14 16  1  0  0  0  0
 16 27  1  6  0  0  0
 18 19  2  0  0  0  0
 18 23  1  0  0  0  0
 19 20  1  0  0  0  0
 20 21  2  0  0  0  0
 21 22  1  0  0  0  0
 21 27  1  0  0  0  0
 22 23  2  0  0  0  0
 22 25  1  0  0  0  0
 23 24  1  0  0  0  0
 25 26  2  0  0  0  0
 26 27  1  0  0  0  0
M  END
>  <CHROM.1>
-2.96030811,-63.16532718,-175.60928064,55.22220521,-85.93183217,64.34942987
171.74394159,44.73509584,53.13310578,31.50748520,-1.12123011,-0.39812728
-1.76684899

>  <Name>
ligand

>  <RI>
0

>  <Rbt.Current_Directory>
/home/itssahil/PROJECTS/Mol_Feturizer/New_Systems/rnas/3GX2

>  <Rbt.Executable>
rbdock ($Id: //depot/dev/client3/rdock/2013.1/src/exe/rbdock.cxx#4 $)

>  <Rbt.Library>
libRbt.so (2013.1, Build901 2013/11/27)

>  <Rbt.Parameter_File>
/export/apps/rDock/src/rDock_2013.1_src/data/scripts/dock_solv.prm

>  <Rbt.Receptor>
prm/pocket_docking_8.prm

>  <SCORE>
-14.2222

>  <SCORE.INTER>
-11.3654

>  <SCORE.INTER.CONST>
1

>  <SCORE.INTER.POLAR>
0

>  <SCORE.INTER.ROT>
7

>  <SCORE.INTER.SOLV>
14.6171

>  <SCORE.INTER.VDW>
-20.7159

>  <SCORE.INTER.norm>
-0.420939

>  <SCORE.INTRA>
-2.85682

>  <SCORE.INTRA.DIHEDRAL>
-6.79662

>  <SCORE.INTRA.DIHEDRAL.0>
13.9704

>  <SCORE.INTRA.POLAR>
0

>  <SCORE.INTRA.POLAR.0>
0

>  <SCORE.INTRA.REPUL>
0

>  <SCORE.INTRA.REPUL.0>
0

>  <SCORE.INTRA.SOLV>
0.0719362

>  <SCORE.INTRA.SOLV.lig_0>
-70.9758

>  <SCORE.INTRA.VDW>
0.505525

>  <SCORE.INTRA.VDW.0>
-2.70686

>  <SCORE.INTRA.norm>
-0.105808

>  <SCORE.RESTR>
0

>  <SCORE.RESTR.CAVITY>
0

>  <SCORE.RESTR.norm>
0

>  <SCORE.SYSTEM>
0

>  <SCORE.SYSTEM.CONST>
0

>  <SCORE.SYSTEM.DIHEDRAL>
0

>  <SCORE.SYSTEM.SOLV>
0

>  <SCORE.SYSTEM.norm>
0

>  <SCORE.heavy>
27

>  <SCORE.norm>
-0.526747

>  <RMSD>
8.089

$$$$
ligand
 OpenBabel11021811483D
libRbt.so/2013.1/901 2013/11/27
 27 29  0  0  0  0  0  0  0  0999 V2000
   42.8772   56.1776   30.6297 N   0  0  0  0  0  0  0  0  0  0  0  0
   43.8560   55.1827   31.0624 C   0  0  2  0  0  0  0  0  0  0  0  0
   44.4406   55.4481   32.4513 C   0  0  0  0  0  0  0  0  0  0  0  0
   44.5771   54.5350   33.1960 O   0  0  0  0  0  0  0  0  0  0  0  0
   44.9330   54.8408   30.0115 C   0  0  0  0  0  0  0  0  0  0  0  0
   45.9045   53.6560   30.2712 C   0  0  0  0  0  0  0  0  0  0  0  0
   46.9348   53.3705   29.1463 C   0  0  2  0  0  0  0  0  0  0  0  0
   46.3051   53.0299   27.8706 N   0  0  0  0  0  0  0  0  0  0  0  0
   48.0193   52.3402   29.5885 C   0  0  0  0  0  0  0  0  0  0  0  0
   49.2318   52.0744   28.6338 C   0  0  1  0  0  0  0  0  0  0  0  0
   48.9820   51.5310   27.3035 O   0  0  0  0  0  0  0  0  0  0  0  0
   50.2083   53.2594   28.3930 C   0  0  1  0  0  0  0  0  0  0  0  0
   50.9905   53.7182   29.5033 O   0  0  0  0  0  0  0  0  0  0  0  0
   50.9187   52.9355   27.0423 C   0  0  1  0  0  0  0  0  0  0  0  0
   52.2806   52.5823   27.0794 O   0  0  0  0  0  0  0  0  0  0  0  0
   49.9274   51.9891   26.3578 C   0  0  2  0  0  0  0  0  0  0  0  0
   45.2249   56.6036   32.6393 O   0  0  0  0  0  0  0  0  0  0  0  0
   50.3988   55.4312   22.1845 N   0  0  0  0  0  0  0  0  0  0  0  0
   51.3774   55.0980   23.1280 C   0  0  0  0  0  0  0  0  0  0  0  0
   51.0725   54.1449   24.1927 N   0  0  0  0  0  0  0  0  0  0  0  0
   49.8300   53.5743   24.2690 C   0  0  0  0  0  0  0  0  0  0  0  0
   48.8504   53.9166   23.3165 C   0  0  0  0  0  0  0  0  0  0  0  0
   49.1546   54.8671   22.2561 C   0  0  0  0  0  0  0  0  0  0  0  0
   48.1385   55.2232   21.2651 N   0  0  0  0  0  0  0  0  0  0  0  0
   47.6496   53.1809   23.6292 N   0  0  0  0  0  0  0  0  0  0  0  0
   47.9114   52.3960   24.7767 C   0  0  0  0  0  0  0  0  0  0  0  0
   49.2567   52.6243   25.1867 N   0  0  0  0  0  0  0  0  0  0  0  0
  2  1  1  6  0  0  0
  2  3  1  0  0  0  0
  2  5  1  0  0  0  0
  3  4  1  0  0  0  0
  3 17  1  0  0  0  0
  5  6  1  0  0  0  0
  7  6  1  1  0  0  0
  7  8  1  0  0  0  0
  7  9  1  0  0  0  0
 10  9  1  6  0  0  0
 10 11  1  0  0  0  0
 10 12  1  0  0  0  0
 11 16  1  0  0  0  0
 12 13  1  1  0  0  0
 12 14  1  0  0  0  0
 14 15  1  1  0  0  0
 14 16  1  0  0  0  0
 16 27  1  6  0  0  0
 18 19  2  0  0  0  0
 18 23  1  0  0  0  0
 19 20  1  0  0  0  0
 20 21  2  0  0  0  0
 21 22  1  0  0  0  0
 21 27  1  0  0  0  0
 22 23  2  0  0  0  0
 22 25  1  0  0  0  0
 23 24  1  0  0  0  0
 25 26  2  0  0  0  0
 26 27  1  0  0  0  0
M  END
>  <CHROM.1>
137.60898341,-171.29296291,178.84185187,-60.68841918,-172.64071693,-61.68609415
157.66348480,48.09639776,53.84410564,27.37559678,2.22423438,-0.46113944,1.76143307

>  <Name>
ligand

>  <RI>
0

>  <Rbt.Current_Directory>
/home/itssahil/PROJECTS/Mol_Feturizer/New_Systems/rnas/3GX2

>  <Rbt.Executable>
rbdock ($Id: //depot/dev/client3/rdock/2013.1/src/exe/rbdock.cxx#4 $)

>  <Rbt.Library>
libRbt.so (2013.1, Build901 2013/11/27)

>  <Rbt.Parameter_File>
/export/apps/rDock/src/rDock_2013.1_src/data/scripts/dock_solv.prm

>  <Rbt.Receptor>
prm/pocket_docking_8.prm

>  <SCORE>
-8.0896

>  <SCORE.INTER>
-4.84055

>  <SCORE.INTER.CONST>
1

>  <SCORE.INTER.POLAR>
0

>  <SCORE.INTER.ROT>
7

>  <SCORE.INTER.SOLV>
12.0814

>  <SCORE.INTER.VDW>
-15.5208

>  <SCORE.INTER.norm>
-0.17928

>  <SCORE.INTRA>
-3.24905

>  <SCORE.INTRA.DIHEDRAL>
-8.6019

>  <SCORE.INTRA.DIHEDRAL.0>
13.9704

>  <SCORE.INTRA.POLAR>
0

>  <SCORE.INTRA.POLAR.0>
0

>  <SCORE.INTRA.REPUL>
0

>  <SCORE.INTRA.REPUL.0>
0

>  <SCORE.INTRA.SOLV>
2.06391

>  <SCORE.INTRA.SOLV.lig_0>
-70.9758

>  <SCORE.INTRA.VDW>
0.019943

>  <SCORE.INTRA.VDW.0>
-2.70686

>  <SCORE.INTRA.norm>
-0.120335

>  <SCORE.RESTR>
0

>  <SCORE.RESTR.CAVITY>
0

>  <SCORE.RESTR.norm>
0

>  <SCORE.SYSTEM>
0

>  <SCORE.SYSTEM.CONST>
0

>  <SCORE.SYSTEM.DIHEDRAL>
0

>  <SCORE.SYSTEM.SOLV>
0

>  <SCORE.SYSTEM.norm>
0

>  <SCORE.heavy>
27

>  <SCORE.norm>
-0.299615

>  <RMSD>
8.093

$$$$
ligand
 OpenBabel11021811483D
libRbt.so/2013.1/901 2013/11/27
 27 29  0  0  0  0  0  0  0  0999 V2000
   42.3288   53.0045   34.6856 N   0  0  0  0  0  0  0  0  0  0  0  0
   43.6624   53.6013   34.6678 C   0  0  2  0  0  0  0  0  0  0  0  0
   44.0960   54.1956   36.0095 C   0  0  0  0  0  0  0  0  0  0  0  0
   43.2657   54.4319   36.8229 O   0  0  0  0  0  0  0  0  0  0  0  0
   43.9282   54.5463   33.4772 C   0  0  0  0  0  0  0  0  0  0  0  0
   43.7947   54.0038   32.0270 C   0  0  0  0  0  0  0  0  0  0  0  0
   44.1179   55.0166   30.8965 C   0  0  2  0  0  0  0  0  0  0  0  0
   43.2414   56.1877   30.9135 N   0  0  0  0  0  0  0  0  0  0  0  0
   44.1978   54.3316   29.4973 C   0  0  0  0  0  0  0  0  0  0  0  0
   45.2692   53.2117   29.2729 C   0  0  1  0  0  0  0  0  0  0  0  0
   45.4421   52.6521   27.9372 O   0  0  0  0  0  0  0  0  0  0  0  0
   46.7144   53.5160   29.7574 C   0  0  1  0  0  0  0  0  0  0  0  0
   46.9328   53.6511   31.1678 O   0  0  0  0  0  0  0  0  0  0  0  0
   47.6315   52.5612   28.9320 C   0  0  1  0  0  0  0  0  0  0  0  0
   48.2540   51.4948   29.6074 O   0  0  0  0  0  0  0  0  0  0  0  0
   46.7778   52.2570   27.6970 C   0  0  2  0  0  0  0  0  0  0  0  0
   45.4265   54.0006   36.4309 O   0  0  0  0  0  0  0  0  0  0  0  0
   50.6699   52.2350   23.9104 N   0  0  0  0  0  0  0  0  0  0  0  0
   50.5334   51.3625   24.9961 C   0  0  0  0  0  0  0  0  0  0  0  0
   49.4147   51.5175   25.9232 N   0  0  0  0  0  0  0  0  0  0  0  0
   48.4967   52.5153   25.7312 C   0  0  0  0  0  0  0  0  0  0  0  0
   48.6425   53.3903   24.6370 C   0  0  0  0  0  0  0  0  0  0  0  0
   49.7580   53.2356   23.7139 C   0  0  0  0  0  0  0  0  0  0  0  0
   49.9106   54.1431   22.5761 N   0  0  0  0  0  0  0  0  0  0  0  0
   47.5524   54.3344   24.6740 N   0  0  0  0  0  0  0  0  0  0  0  0
   46.7514   54.0242   25.7981 C   0  0  0  0  0  0  0  0  0  0  0  0
   47.3185   52.8997   26.4644 N   0  0  0  0  0  0  0  0  0  0  0  0
  2  1  1  1  0  0  0
  2  3  1  0  0  0  0
  2  5  1  0  0  0  0
  3  4  1  0  0  0  0
  3 17  1  0  0  0  0
  5  6  1  0  0  0  0
  7  6  1  1  0  0  0
  7  8  1  0  0  0  0
  7  9  1  0  0  0  0
 10  9  1  6  0  0  0
 10 11  1  0  0  0  0
 10 12  1  0  0  0  0
 11 16  1  0  0  0  0
 12 13  1  1  0  0  0
 12 14  1  0  0  0  0
 14 15  1  1  0  0  0
 14 16  1  0  0  0  0
 16 27  1  6  0  0  0
 18 19  2  0  0  0  0
 18 23  1  0  0  0  0
 19 20  1  0  0  0  0
 20 21  2  0  0  0  0
 21 22  1  0  0  0  0
 21 27  1  0  0  0  0
 22 23  2  0  0  0  0
 22 25  1  0  0  0  0
 23 24  1  0  0  0  0
 25 26  2  0  0  0  0
 26 27  1  0  0  0  0
M  END
>  <CHROM.1>
-18.21439511,-58.43691854,-178.43414562,-60.56323055,-60.53446568,-174.20002793
-164.24169167,46.38727624,53.42748614,29.35887080,2.16099413,-0.57290720
1.78894752

>  <Name>
ligand

>  <RI>
0

>  <Rbt.Current_Directory>
/home/itssahil/PROJECTS/Mol_Feturizer/New_Systems/rnas/3GX2

>  <Rbt.Executable>
rbdock ($Id: //depot/dev/client3/rdock/2013.1/src/exe/rbdock.cxx#4 $)

>  <Rbt.Library>
libRbt.so (2013.1, Build901 2013/11/27)

>  <Rbt.Parameter_File>
/export/apps/rDock/src/rDock_2013.1_src/data/scripts/dock_solv.prm

>  <Rbt.Receptor>
prm/pocket_docking_8.prm

>  <SCORE>
-8.63673

>  <SCORE.INTER>
-4.42997

>  <SCORE.INTER.CONST>
1

>  <SCORE.INTER.POLAR>
0

>  <SCORE.INTER.ROT>
7

>  <SCORE.INTER.SOLV>
10.3391

>  <SCORE.INTER.VDW>
-14.6663

>  <SCORE.INTER.norm>
-0.164073

>  <SCORE.INTRA>
-4.20677

>  <SCORE.INTRA.DIHEDRAL>
-9.29307

>  <SCORE.INTRA.DIHEDRAL.0>
13.9704

>  <SCORE.INTRA.POLAR>
0

>  <SCORE.INTRA.POLAR.0>
0

>  <SCORE.INTRA.REPUL>
0

>  <SCORE.INTRA.REPUL.0>
0

>  <SCORE.INTRA.SOLV>
0.366199

>  <SCORE.INTRA.SOLV.lig_0>
-70.9758

>  <SCORE.INTRA.VDW>
0.256665

>  <SCORE.INTRA.VDW.0>
-2.70686

>  <SCORE.INTRA.norm>
-0.155806

>  <SCORE.RESTR>
0

>  <SCORE.RESTR.CAVITY>
0

>  <SCORE.RESTR.norm>
0

>  <SCORE.SYSTEM>
0

>  <SCORE.SYSTEM.CONST>
0

>  <SCORE.SYSTEM.DIHEDRAL>
0

>  <SCORE.SYSTEM.SOLV>
0

>  <SCORE.SYSTEM.norm>
0

>  <SCORE.heavy>
27

>  <SCORE.norm>
-0.319879

>  <RMSD>
8.544

$$$$
ligand
 OpenBabel11021811473D
libRbt.so/2013.1/901 2013/11/27
 27 29  0  0  0  0  0  0  0  0999 V2000
   47.9083   52.5201   19.6451 N   0  0  0  0  0  0  0  0  0  0  0  0
   48.0469   53.6253   20.5907 C   0  0  2  0  0  0  0  0  0  0  0  0
   47.9397   55.0102   19.9490 C   0  0  0  0  0  0  0  0  0  0  0  0
   48.7746   55.3463   19.1764 O   0  0  0  0  0  0  0  0  0  0  0  0
   49.2450   53.5001   21.5551 C   0  0  0  0  0  0  0  0  0  0  0  0
   49.4732   54.5937   22.6355 C   0  0  0  0  0  0  0  0  0  0  0  0
   48.3554   54.7292   23.7035 C   0  0  2  0  0  0  0  0  0  0  0  0
   48.4977   55.9294   24.5276 N   0  0  0  0  0  0  0  0  0  0  0  0
   48.1826   53.4263   24.5437 C   0  0  0  0  0  0  0  0  0  0  0  0
   49.4670   52.6859   25.0482 C   0  0  1  0  0  0  0  0  0  0  0  0
   50.1888   51.8115   24.1307 O   0  0  0  0  0  0  0  0  0  0  0  0
   50.5722   53.5630   25.7001 C   0  0  1  0  0  0  0  0  0  0  0  0
   50.2698   54.2033   26.9467 O   0  0  0  0  0  0  0  0  0  0  0  0
   51.8849   52.7300   25.5699 C   0  0  1  0  0  0  0  0  0  0  0  0
   52.4418   52.1857   26.7422 O   0  0  0  0  0  0  0  0  0  0  0  0
   51.5773   51.7968   24.3946 C   0  0  2  0  0  0  0  0  0  0  0  0
   46.6751   55.6298   19.8978 O   0  0  0  0  0  0  0  0  0  0  0  0
   53.8655   55.7491   21.4567 N   0  0  0  0  0  0  0  0  0  0  0  0
   53.1548   55.8816   22.6551 C   0  0  0  0  0  0  0  0  0  0  0  0
   52.6036   54.6992   23.3134 N   0  0  0  0  0  0  0  0  0  0  0  0
   52.7823   53.4592   22.7606 C   0  0  0  0  0  0  0  0  0  0  0  0
   53.4972   53.3349   21.5533 C   0  0  0  0  0  0  0  0  0  0  0  0
   54.0457   54.5137   20.8975 C   0  0  0  0  0  0  0  0  0  0  0  0
   54.7895   54.3865   19.6437 N   0  0  0  0  0  0  0  0  0  0  0  0
   53.5335   51.9369   21.1996 N   0  0  0  0  0  0  0  0  0  0  0  0
   52.8341   51.2210   22.1995 C   0  0  0  0  0  0  0  0  0  0  0  0
   52.3631   52.1457   23.1757 N   0  0  0  0  0  0  0  0  0  0  0  0
  2  1  1  6  0  0  0
  2  3  1  0  0  0  0
  2  5  1  0  0  0  0
  3  4  1  0  0  0  0
  3 17  1  0  0  0  0
  5  6  1  0  0  0  0
  7  6  1  1  0  0  0
  7  8  1  0  0  0  0
  7  9  1  0  0  0  0
 10  9  1  6  0  0  0
 10 11  1  0  0  0  0
 10 12  1  0  0  0  0
 11 16  1  0  0  0  0
 12 13  1  1  0  0  0
 12 14  1  0  0  0  0
 14 15  1  1  0  0  0
 14 16  1  0  0  0  0
 16 27  1  6  0  0  0
 18 19  2  0  0  0  0
 18 23  1  0  0  0  0
 19 20  1  0  0  0  0
 20 21  2  0  0  0  0
 21 22  1  0  0  0  0
 21 27  1  0  0  0  0
 22 23  2  0  0  0  0
 22 25  1  0  0  0  0
 23 24  1  0  0  0  0
 25 26  2  0  0  0  0
 26 27  1  0  0  0  0
M  END
>  <CHROM.1>
-65.22726660,-178.21488882,63.54642726,-168.89554010,43.45109833,-80.60149320
90.33026897,50.77548656,53.73576234,22.74745092,-2.37244731,-0.15124923,1.81772650

>  <Name>
ligand

>  <RI>
0

>  <Rbt.Current_Directory>
/home/itssahil/PROJECTS/Mol_Feturizer/New_Systems/rnas/3GX2

>  <Rbt.Executable>
rbdock ($Id: //depot/dev/client3/rdock/2013.1/src/exe/rbdock.cxx#4 $)

>  <Rbt.Library>
libRbt.so (2013.1, Build901 2013/11/27)

>  <Rbt.Parameter_File>
/export/apps/rDock/src/rDock_2013.1_src/data/scripts/dock_solv.prm

>  <Rbt.Receptor>
prm/blind_docking_100.prm

>  <SCORE>
-8.69971

>  <SCORE.INTER>
-4.92894

>  <SCORE.INTER.CONST>
1

>  <SCORE.INTER.POLAR>
0

>  <SCORE.INTER.ROT>
7

>  <SCORE.INTER.SOLV>
16.329

>  <SCORE.INTER.VDW>
-16.9956

>  <SCORE.INTER.norm>
-0.182553

>  <SCORE.INTRA>
-3.77077

>  <SCORE.INTRA.DIHEDRAL>
-6.61049

>  <SCORE.INTRA.DIHEDRAL.0>
13.9704

>  <SCORE.INTRA.POLAR>
0

>  <SCORE.INTRA.POLAR.0>
0

>  <SCORE.INTRA.REPUL>
0

>  <SCORE.INTRA.REPUL.0>
0

>  <SCORE.INTRA.SOLV>
1.47771

>  <SCORE.INTRA.SOLV.lig_0>
-70.9758

>  <SCORE.INTRA.VDW>
-1.20438

>  <SCORE.INTRA.VDW.0>
-2.70686

>  <SCORE.INTRA.norm>
-0.139658

>  <SCORE.RESTR>
0

>  <SCORE.RESTR.CAVITY>
0

>  <SCORE.RESTR.norm>
0

>  <SCORE.SYSTEM>
0

>  <SCORE.SYSTEM.CONST>
0

>  <SCORE.SYSTEM.DIHEDRAL>
0

>  <SCORE.SYSTEM.SOLV>
0

>  <SCORE.SYSTEM.norm>
0

>  <SCORE.heavy>
27

>  <SCORE.norm>
-0.322212

>  <RMSD>
10.461

$$$$
ligand
 OpenBabel11021811473D
libRbt.so/2013.1/901 2013/11/27
 27 29  0  0  0  0  0  0  0  0999 V2000
   50.3313   54.1242   15.9798 N   0  0  0  0  0  0  0  0  0  0  0  0
   51.3598   54.3056   17.0016 C   0  0  2  0  0  0  0  0  0  0  0  0
   52.2905   53.1026   17.1681 C   0  0  0  0  0  0  0  0  0  0  0  0
   53.1778   53.1728   17.9521 O   0  0  0  0  0  0  0  0  0  0  0  0
   50.8400   54.8548   18.3468 C   0  0  0  0  0  0  0  0  0  0  0  0
   49.9928   53.9361   19.2706 C   0  0  0  0  0  0  0  0  0  0  0  0
   49.3667   54.6234   20.5132 C   0  0  2  0  0  0  0  0  0  0  0  0
   48.3197   55.5840   20.1654 N   0  0  0  0  0  0  0  0  0  0  0  0
   50.4497   55.2161   21.4666 C   0  0  0  0  0  0  0  0  0  0  0  0
   50.7451   54.4762   22.8147 C   0  0  1  0  0  0  0  0  0  0  0  0
   49.8120   54.6254   23.9257 O   0  0  0  0  0  0  0  0  0  0  0  0
   51.0106   52.9469   22.7322 C   0  0  1  0  0  0  0  0  0  0  0  0
   52.1978   52.5091   22.0585 O   0  0  0  0  0  0  0  0  0  0  0  0
   50.6990   52.4006   24.1600 C   0  0  1  0  0  0  0  0  0  0  0  0
   51.7771   51.9552   24.9475 O   0  0  0  0  0  0  0  0  0  0  0  0
   49.7562   53.4648   24.7305 C   0  0  2  0  0  0  0  0  0  0  0  0
   51.8181   51.8312   16.7860 O   0  0  0  0  0  0  0  0  0  0  0  0
   44.7788   53.2995   22.5659 N   0  0  0  0  0  0  0  0  0  0  0  0
   45.9091   53.9466   22.0534 C   0  0  0  0  0  0  0  0  0  0  0  0
   47.1776   53.8856   22.7760 N   0  0  0  0  0  0  0  0  0  0  0  0
   47.2641   53.1942   23.9549 C   0  0  0  0  0  0  0  0  0  0  0  0
   46.1213   52.5474   24.4646 C   0  0  0  0  0  0  0  0  0  0  0  0
   44.8573   52.6092   23.7443 C   0  0  0  0  0  0  0  0  0  0  0  0
   43.6693   51.9371   24.2719 N   0  0  0  0  0  0  0  0  0  0  0  0
   46.4888   51.9050   25.7029 N   0  0  0  0  0  0  0  0  0  0  0  0
   47.8585   52.1711   25.9366 C   0  0  0  0  0  0  0  0  0  0  0  0
   48.3568   52.9663   24.8645 N   0  0  0  0  0  0  0  0  0  0  0  0
  2  1  1  6  0  0  0
  2  3  1  0  0  0  0
  2  5  1  0  0  0  0
  3  4  1  0  0  0  0
  3 17  1  0  0  0  0
  5  6  1  0  0  0  0
  7  6  1  6  0  0  0
  7  8  1  0  0  0  0
  7  9  1  0  0  0  0
 10  9  1  6  0  0  0
 10 11  1  0  0  0  0
 10 12  1  0  0  0  0
 11 16  1  0  0  0  0
 12 13  1  1  0  0  0
 12 14  1  0  0  0  0
 14 15  1  1  0  0  0
 14 16  1  0  0  0  0
 16 27  1  6  0  0  0
 18 19  2  0  0  0  0
 18 23  1  0  0  0  0
 19 20  1  0  0  0  0
 20 21  2  0  0  0  0
 21 22  1  0  0  0  0
 21 27  1  0  0  0  0
 22 23  2  0  0  0  0
 22 25  1  0  0  0  0
 23 24  1  0  0  0  0
 25 26  2  0  0  0  0
 26 27  1  0  0  0  0
M  END
>  <CHROM.1>
178.11515635,71.88352382,-172.65787627,68.18702451,-105.95473010,-77.03218826
24.27544647,49.24073104,53.38628353,21.79725564,0.93876157,0.06081203,-1.39290238

>  <Name>
ligand

>  <RI>
0

>  <Rbt.Current_Directory>
/home/itssahil/PROJECTS/Mol_Feturizer/New_Systems/rnas/3GX2

>  <Rbt.Executable>
rbdock ($Id: //depot/dev/client3/rdock/2013.1/src/exe/rbdock.cxx#4 $)

>  <Rbt.Library>
libRbt.so (2013.1, Build901 2013/11/27)

>  <Rbt.Parameter_File>
/export/apps/rDock/src/rDock_2013.1_src/data/scripts/dock_solv.prm

>  <Rbt.Receptor>
prm/blind_docking_80.prm

>  <SCORE>
-7.30487

>  <SCORE.INTER>
-6.12257

>  <SCORE.INTER.CONST>
1

>  <SCORE.INTER.POLAR>
0

>  <SCORE.INTER.ROT>
7

>  <SCORE.INTER.SOLV>
26.8752

>  <SCORE.INTER.VDW>
-21.3068

>  <SCORE.INTER.norm>
-0.226762

>  <SCORE.INTRA>
-1.18229

>  <SCORE.INTRA.DIHEDRAL>
-2.87984

>  <SCORE.INTRA.DIHEDRAL.0>
13.9704

>  <SCORE.INTRA.POLAR>
0

>  <SCORE.INTRA.POLAR.0>
0

>  <SCORE.INTRA.REPUL>
0

>  <SCORE.INTRA.REPUL.0>
0

>  <SCORE.INTRA.SOLV>
1.35437

>  <SCORE.INTRA.SOLV.lig_0>
-70.9758

>  <SCORE.INTRA.VDW>
-0.419559

>  <SCORE.INTRA.VDW.0>
-2.70686

>  <SCORE.INTRA.norm>
-0.0437887

>  <SCORE.RESTR>
0

>  <SCORE.RESTR.CAVITY>
0

>  <SCORE.RESTR.norm>
0

>  <SCORE.SYSTEM>
0

>  <SCORE.SYSTEM.CONST>
0

>  <SCORE.SYSTEM.DIHEDRAL>
0

>  <SCORE.SYSTEM.SOLV>
0

>  <SCORE.SYSTEM.norm>
0

>  <SCORE.heavy>
27

>  <SCORE.norm>
-0.270551

>  <RMSD>
10.824

$$$$
ligand
 OpenBabel11021811473D
libRbt.so/2013.1/901 2013/11/27
 27 29  0  0  0  0  0  0  0  0999 V2000
   53.3445   51.7662   23.0572 N   0  0  0  0  0  0  0  0  0  0  0  0
   53.4821   51.0595   24.3287 C   0  0  2  0  0  0  0  0  0  0  0  0
   54.3257   49.7857   24.2445 C   0  0  0  0  0  0  0  0  0  0  0  0
   54.9963   49.4839   25.1750 O   0  0  0  0  0  0  0  0  0  0  0  0
   52.1598   50.8557   25.0975 C   0  0  0  0  0  0  0  0  0  0  0  0
   51.2596   52.0840   25.4076 C   0  0  0  0  0  0  0  0  0  0  0  0
   49.9035   51.7693   26.0936 C   0  0  2  0  0  0  0  0  0  0  0  0
   49.1021   50.7965   25.3511 N   0  0  0  0  0  0  0  0  0  0  0  0
   49.1131   53.0640   26.4573 C   0  0  0  0  0  0  0  0  0  0  0  0
   48.7365   54.0582   25.3074 C   0  0  1  0  0  0  0  0  0  0  0  0
   49.7565   54.9621   24.7881 O   0  0  0  0  0  0  0  0  0  0  0  0
   48.0762   53.4473   24.0399 C   0  0  1  0  0  0  0  0  0  0  0  0
   46.7689   52.8749   24.1762 O   0  0  0  0  0  0  0  0  0  0  0  0
   48.3402   54.4822   22.9026 C   0  0  1  0  0  0  0  0  0  0  0  0
   47.2452   55.2151   22.4080 O   0  0  0  0  0  0  0  0  0  0  0  0
   49.5677   55.2418   23.4155 C   0  0  2  0  0  0  0  0  0  0  0  0
   53.9410   48.7858   23.3291 O   0  0  0  0  0  0  0  0  0  0  0  0
   51.6106   53.8085   18.5927 N   0  0  0  0  0  0  0  0  0  0  0  0
   50.2653   54.0110   18.9213 C   0  0  0  0  0  0  0  0  0  0  0  0
   49.8943   54.3966   20.2809 N   0  0  0  0  0  0  0  0  0  0  0  0
   50.8616   54.5625   21.2360 C   0  0  0  0  0  0  0  0  0  0  0  0
   52.2130   54.3550   20.8974 C   0  0  0  0  0  0  0  0  0  0  0  0
   52.5819   53.9699   19.5424 C   0  0  0  0  0  0  0  0  0  0  0  0
   53.9854   53.7548   19.1884 N   0  0  0  0  0  0  0  0  0  0  0  0
   53.0088   54.5929   22.0768 N   0  0  0  0  0  0  0  0  0  0  0  0
   52.1284   54.9422   23.1277 C   0  0  0  0  0  0  0  0  0  0  0  0
   50.7947   54.9308   22.6264 N   0  0  0  0  0  0  0  0  0  0  0  0
  2  1  1  6  0  0  0
  2  3  1  0  0  0  0
  2  5  1  0  0  0  0
  3  4  1  0  0  0  0
  3 17  1  0  0  0  0
  5  6  1  0  0  0  0
  7  6  1  6  0  0  0
  7  8  1  0  0  0  0
  7  9  1  0  0  0  0
 10  9  1  1  0  0  0
 10 11  1  0  0  0  0
 10 12  1  0  0  0  0
 11 16  1  0  0  0  0
 12 13  1  1  0  0  0
 12 14  1  0  0  0  0
 14 15  1  1  0  0  0
 14 16  1  0  0  0  0
 16 27  1  6  0  0  0
 18 19  2  0  0  0  0
 18 23  1  0  0  0  0
 19 20  1  0  0  0  0
 20 21  2  0  0  0  0
 21 22  1  0  0  0  0
 21 27  1  0  0  0  0
 22 23  2  0  0  0  0
 22 25  1  0  0  0  0
 23 24  1  0  0  0  0
 25 26  2  0  0  0  0
 26 27  1  0  0  0  0
M  END
>  <CHROM.1>
145.92662928,-53.76908309,175.77927838,-54.79204210,58.63543035,-78.31346471
152.94227721,51.00089735,53.02397683,23.10272216,-0.63570211,0.50948644,-1.00939716

>  <Name>
ligand

>  <RI>
0

>  <Rbt.Current_Directory>
/home/itssahil/PROJECTS/Mol_Feturizer/New_Systems/rnas/3GX2

>  <Rbt.Executable>
rbdock ($Id: //depot/dev/client3/rdock/2013.1/src/exe/rbdock.cxx#4 $)

>  <Rbt.Library>
libRbt.so (2013.1, Build901 2013/11/27)

>  <Rbt.Parameter_File>
/export/apps/rDock/src/rDock_2013.1_src/data/scripts/dock_solv.prm

>  <Rbt.Receptor>
prm/blind_docking_80.prm

>  <SCORE>
-10.9087

>  <SCORE.INTER>
-8.01051

>  <SCORE.INTER.CONST>
1

>  <SCORE.INTER.POLAR>
0

>  <SCORE.INTER.ROT>
7

>  <SCORE.INTER.SOLV>
15.341

>  <SCORE.INTER.VDW>
-18.7207

>  <SCORE.INTER.norm>
-0.296686

>  <SCORE.INTRA>
-2.89822

>  <SCORE.INTRA.DIHEDRAL>
-7.66608

>  <SCORE.INTRA.DIHEDRAL.0>
13.9704

>  <SCORE.INTRA.POLAR>
0

>  <SCORE.INTRA.POLAR.0>
0

>  <SCORE.INTRA.REPUL>
0

>  <SCORE.INTRA.REPUL.0>
0

>  <SCORE.INTRA.SOLV>
3.62796

>  <SCORE.INTRA.SOLV.lig_0>
-70.9758

>  <SCORE.INTRA.VDW>
-0.879156

>  <SCORE.INTRA.VDW.0>
-2.70686

>  <SCORE.INTRA.norm>
-0.107341

>  <SCORE.RESTR>
0

>  <SCORE.RESTR.CAVITY>
0

>  <SCORE.RESTR.norm>
0

>  <SCORE.SYSTEM>
0

>  <SCORE.SYSTEM.CONST>
0

>  <SCORE.SYSTEM.DIHEDRAL>
0

>  <SCORE.SYSTEM.SOLV>
0

>  <SCORE.SYSTEM.norm>
0

>  <SCORE.heavy>
27

>  <SCORE.norm>
-0.404027

>  <RMSD>
10.878

$$$$
ligand
 OpenBabel11021811473D
libRbt.so/2013.1/901 2013/11/27
 27 29  0  0  0  0  0  0  0  0999 V2000
   50.1033   55.8980   17.6224 N   0  0  0  0  0  0  0  0  0  0  0  0
   51.2095   54.9442   17.6596 C   0  0  2  0  0  0  0  0  0  0  0  0
   51.2954   54.0427   16.4262 C   0  0  0  0  0  0  0  0  0  0  0  0
   51.9280   53.0417   16.4951 O   0  0  0  0  0  0  0  0  0  0  0  0
   51.3424   54.1649   18.9848 C   0  0  0  0  0  0  0  0  0  0  0  0
   52.7227   53.5767   19.3897 C   0  0  0  0  0  0  0  0  0  0  0  0
   52.7859   52.9079   20.7887 C   0  0  2  0  0  0  0  0  0  0  0  0
   52.2656   53.7654   21.8537 N   0  0  0  0  0  0  0  0  0  0  0  0
   54.2010   52.3316   21.1027 C   0  0  0  0  0  0  0  0  0  0  0  0
   54.4424   51.6592   22.4962 C   0  0  1  0  0  0  0  0  0  0  0  0
   53.9774   52.3365   23.7013 O   0  0  0  0  0  0  0  0  0  0  0  0
   53.9549   50.1926   22.6615 C   0  0  1  0  0  0  0  0  0  0  0  0
   54.6119   49.1781   21.8905 O   0  0  0  0  0  0  0  0  0  0  0  0
   53.7829   49.9900   24.1988 C   0  0  1  0  0  0  0  0  0  0  0  0
   54.6945   49.1463   24.8607 O   0  0  0  0  0  0  0  0  0  0  0  0
   53.5956   51.4221   24.7093 C   0  0  2  0  0  0  0  0  0  0  0  0
   50.2846   54.1440   15.4497 O   0  0  0  0  0  0  0  0  0  0  0  0
   50.4224   53.6008   28.5396 N   0  0  0  0  0  0  0  0  0  0  0  0
   51.8213   53.5883   28.4987 C   0  0  0  0  0  0  0  0  0  0  0  0
   52.5149   52.9505   27.3819 N   0  0  0  0  0  0  0  0  0  0  0  0
   51.7983   52.3654   26.3722 C   0  0  0  0  0  0  0  0  0  0  0  0
   50.3907   52.3809   26.4221 C   0  0  0  0  0  0  0  0  0  0  0  0
   49.7002   53.0160   27.5358 C   0  0  0  0  0  0  0  0  0  0  0  0
   48.2379   53.0339   27.5889 N   0  0  0  0  0  0  0  0  0  0  0  0
   49.8964   51.7021   25.2491 N   0  0  0  0  0  0  0  0  0  0  0  0
   51.0146   51.2758   24.4945 C   0  0  0  0  0  0  0  0  0  0  0  0
   52.2012   51.6788   25.1724 N   0  0  0  0  0  0  0  0  0  0  0  0
  2  1  1  1  0  0  0
  2  3  1  0  0  0  0
  2  5  1  0  0  0  0
  3  4  1  0  0  0  0
  3 17  1  0  0  0  0
  5  6  1  0  0  0  0
  7  6  1  6  0  0  0
  7  8  1  0  0  0  0
  7  9  1  0  0  0  0
 10  9  1  6  0  0  0
 10 11  1  0  0  0  0
 10 12  1  0  0  0  0
 11 16  1  0  0  0  0
 12 13  1  1  0  0  0
 12 14  1  0  0  0  0
 14 15  1  1  0  0  0
 14 16  1  0  0  0  0
 16 27  1  6  0  0  0
 18 19  2  0  0  0  0
 18 23  1  0  0  0  0
 19 20  1  0  0  0  0
 20 21  2  0  0  0  0
 21 22  1  0  0  0  0
 21 27  1  0  0  0  0
 22 23  2  0  0  0  0
 22 25  1  0  0  0  0
 23 24  1  0  0  0  0
 25 26  2  0  0  0  0
 26 27  1  0  0  0  0
M  END
>  <CHROM.1>
-161.71430082,-155.66685640,175.33535476,-51.46091837,178.25209804,-46.64133553
-101.08018723,52.08427988,52.51218442,22.73515174,1.56922166,0.68948914,-1.38194182

>  <Name>
ligand

>  <RI>
0

>  <Rbt.Current_Directory>
/home/itssahil/PROJECTS/Mol_Feturizer/New_Systems/rnas/3GX2

>  <Rbt.Executable>
rbdock ($Id: //depot/dev/client3/rdock/2013.1/src/exe/rbdock.cxx#4 $)

>  <Rbt.Library>
libRbt.so (2013.1, Build901 2013/11/27)

>  <Rbt.Parameter_File>
/export/apps/rDock/src/rDock_2013.1_src/data/scripts/dock_solv.prm

>  <Rbt.Receptor>
prm/blind_docking_100.prm

>  <SCORE>
-11.8835

>  <SCORE.INTER>
-10.3944

>  <SCORE.INTER.CONST>
1

>  <SCORE.INTER.POLAR>
0

>  <SCORE.INTER.ROT>
7

>  <SCORE.INTER.SOLV>
15.5235

>  <SCORE.INTER.VDW>
-20.3708

>  <SCORE.INTER.norm>
-0.384979

>  <SCORE.INTRA>
-1.52189

>  <SCORE.INTRA.DIHEDRAL>
-6.92558

>  <SCORE.INTRA.DIHEDRAL.0>
13.9704

>  <SCORE.INTRA.POLAR>
0

>  <SCORE.INTRA.POLAR.0>
0

>  <SCORE.INTRA.REPUL>
0

>  <SCORE.INTRA.REPUL.0>
0

>  <SCORE.INTRA.SOLV>
2.31948

>  <SCORE.INTRA.SOLV.lig_0>
-70.9758

>  <SCORE.INTRA.VDW>
0.781164

>  <SCORE.INTRA.VDW.0>
-2.70686

>  <SCORE.INTRA.norm>
-0.0563662

>  <SCORE.RESTR>
0.0328368

>  <SCORE.RESTR.CAVITY>
0.0328368

>  <SCORE.RESTR.norm>
0.00121618

>  <SCORE.SYSTEM>
0

>  <SCORE.SYSTEM.CONST>
0

>  <SCORE.SYSTEM.DIHEDRAL>
0

>  <SCORE.SYSTEM.SOLV>
0

>  <SCORE.SYSTEM.norm>
0

>  <SCORE.heavy>
27

>  <SCORE.norm>
-0.440129

>  <RMSD>
10.976

$$$$
ligand
 OpenBabel11021811473D
libRbt.so/2013.1/901 2013/11/27
 27 29  0  0  0  0  0  0  0  0999 V2000
   44.8531   52.0170   26.9520 N   0  0  0  0  0  0  0  0  0  0  0  0
   45.3574   52.7677   25.8043 C   0  0  2  0  0  0  0  0  0  0  0  0
   44.7929   52.3029   24.4602 C   0  0  0  0  0  0  0  0  0  0  0  0
   44.5005   51.1609   24.3292 O   0  0  0  0  0  0  0  0  0  0  0  0
   46.8888   52.9553   25.7812 C   0  0  0  0  0  0  0  0  0  0  0  0
   47.5084   54.0692   24.8921 C   0  0  0  0  0  0  0  0  0  0  0  0
   49.0287   54.3159   25.0831 C   0  0  2  0  0  0  0  0  0  0  0  0
   49.4118   54.4492   26.4886 N   0  0  0  0  0  0  0  0  0  0  0  0
   49.5522   55.4843   24.1920 C   0  0  0  0  0  0  0  0  0  0  0  0
   49.8598   55.1950   22.6840 C   0  0  1  0  0  0  0  0  0  0  0  0
   51.2397   54.9631   22.2728 O   0  0  0  0  0  0  0  0  0  0  0  0
   49.0553   54.0477   22.0114 C   0  0  1  0  0  0  0  0  0  0  0  0
   47.6433   54.2296   21.8434 O   0  0  0  0  0  0  0  0  0  0  0  0
   49.9177   53.6064   20.7885 C   0  0  1  0  0  0  0  0  0  0  0  0
   49.4413   53.9097   19.4994 O   0  0  0  0  0  0  0  0  0  0  0  0
   51.3247   54.0655   21.1842 C   0  0  2  0  0  0  0  0  0  0  0  0
   44.1947   53.2602   23.6167 O   0  0  0  0  0  0  0  0  0  0  0  0
   52.6790   50.2154   24.7661 N   0  0  0  0  0  0  0  0  0  0  0  0
   51.6678   51.1752   24.8893 C   0  0  0  0  0  0  0  0  0  0  0  0
   51.4426   52.1423   23.8175 N   0  0  0  0  0  0  0  0  0  0  0  0
   52.2186   52.1110   22.6897 C   0  0  0  0  0  0  0  0  0  0  0  0
   53.2353   51.1429   22.5745 C   0  0  0  0  0  0  0  0  0  0  0  0
   53.4597   50.1799   23.6434 C   0  0  0  0  0  0  0  0  0  0  0  0
   54.5149   49.1729   23.5251 N   0  0  0  0  0  0  0  0  0  0  0  0
   53.8911   51.3354   21.3041 N   0  0  0  0  0  0  0  0  0  0  0  0
   53.2649   52.4264   20.6567 C   0  0  0  0  0  0  0  0  0  0  0  0
   52.2256   52.9189   21.4977 N   0  0  0  0  0  0  0  0  0  0  0  0
  2  1  1  1  0  0  0
  2  3  1  0  0  0  0
  2  5  1  0  0  0  0
  3  4  1  0  0  0  0
  3 17  1  0  0  0  0
  5  6  1  0  0  0  0
  7  6  1  1  0  0  0
  7  8  1  0  0  0  0
  7  9  1  0  0  0  0
 10  9  1  1  0  0  0
 10 11  1  0  0  0  0
 10 12  1  0  0  0  0
 11 16  1  0  0  0  0
 12 13  1  6  0  0  0
 12 14  1  0  0  0  0
 14 15  1  6  0  0  0
 14 16  1  0  0  0  0
 16 27  1  1  0  0  0
 18 19  2  0  0  0  0
 18 23  1  0  0  0  0
 19 20  1  0  0  0  0
 20 21  2  0  0  0  0
 21 22  1  0  0  0  0
 21 27  1  0  0  0  0
 22 23  2  0  0  0  0
 22 25  1  0  0  0  0
 23 24  1  0  0  0  0
 25 26  2  0  0  0  0
 26 27  1  0  0  0  0
M  END
>  <CHROM.1>
-30.78614445,-161.41453121,171.70280118,-48.59040634,-80.39450796,-99.52843565
47.77790846,49.62629807,52.83947798,23.36864393,-2.98574065,0.33708922,-0.89751856

>  <Name>
ligand

>  <RI>
0

>  <Rbt.Current_Directory>
/home/itssahil/PROJECTS/Mol_Feturizer/New_Systems/rnas/3GX2

>  <Rbt.Executable>
rbdock ($Id: //depot/dev/client3/rdock/2013.1/src/exe/rbdock.cxx#4 $)

>  <Rbt.Library>
libRbt.so (2013.1, Build901 2013/11/27)

>  <Rbt.Parameter_File>
/export/apps/rDock/src/rDock_2013.1_src/data/scripts/dock_solv.prm

>  <Rbt.Receptor>
prm/blind_docking_80.prm

>  <SCORE>
-13.9557

>  <SCORE.INTER>
-12.4305

>  <SCORE.INTER.CONST>
1

>  <SCORE.INTER.POLAR>
0

>  <SCORE.INTER.ROT>
7

>  <SCORE.INTER.SOLV>
17.4499

>  <SCORE.INTER.VDW>
-22.3703

>  <SCORE.INTER.norm>
-0.460388

>  <SCORE.INTRA>
-1.52519

>  <SCORE.INTRA.DIHEDRAL>
-2.42749

>  <SCORE.INTRA.DIHEDRAL.0>
13.9704

>  <SCORE.INTRA.POLAR>
0

>  <SCORE.INTRA.POLAR.0>
0

>  <SCORE.INTRA.REPUL>
0

>  <SCORE.INTRA.REPUL.0>
0

>  <SCORE.INTRA.SOLV>
0.436923

>  <SCORE.INTRA.SOLV.lig_0>
-70.9758

>  <SCORE.INTRA.VDW>
-0.5299

>  <SCORE.INTRA.VDW.0>
-2.70686

>  <SCORE.INTRA.norm>
-0.0564883

>  <SCORE.RESTR>
0

>  <SCORE.RESTR.CAVITY>
0

>  <SCORE.RESTR.norm>
0

>  <SCORE.SYSTEM>
0

>  <SCORE.SYSTEM.CONST>
0

>  <SCORE.SYSTEM.DIHEDRAL>
0

>  <SCORE.SYSTEM.SOLV>
0

>  <SCORE.SYSTEM.norm>
0

>  <SCORE.heavy>
27

>  <SCORE.norm>
-0.516876

>  <RMSD>
11.111

$$$$
ligand
 OpenBabel11021811473D
libRbt.so/2013.1/901 2013/11/27
 27 29  0  0  0  0  0  0  0  0999 V2000
   56.4247   46.8701   23.7375 N   0  0  0  0  0  0  0  0  0  0  0  0
   55.2926   47.7506   23.4585 C   0  0  2  0  0  0  0  0  0  0  0  0
   54.9747   47.9025   21.9695 C   0  0  0  0  0  0  0  0  0  0  0  0
   55.8553   47.7836   21.1838 O   0  0  0  0  0  0  0  0  0  0  0  0
   55.3274   49.0997   24.2068 C   0  0  0  0  0  0  0  0  0  0  0  0
   54.1375   50.0878   24.0557 C   0  0  0  0  0  0  0  0  0  0  0  0
   53.9763   50.7394   22.6565 C   0  0  2  0  0  0  0  0  0  0  0  0
   55.1244   51.5624   22.2761 N   0  0  0  0  0  0  0  0  0  0  0  0
   52.6132   51.4827   22.5064 C   0  0  0  0  0  0  0  0  0  0  0  0
   52.2558   52.6050   23.5385 C   0  0  1  0  0  0  0  0  0  0  0  0
   51.7787   53.8935   23.0493 O   0  0  0  0  0  0  0  0  0  0  0  0
   51.2606   52.2260   24.6707 C   0  0  1  0  0  0  0  0  0  0  0  0
   51.6872   51.2611   25.6414 O   0  0  0  0  0  0  0  0  0  0  0  0
   50.6590   53.5811   25.1564 C   0  0  1  0  0  0  0  0  0  0  0  0
   51.0261   54.0481   26.4324 O   0  0  0  0  0  0  0  0  0  0  0  0
   50.8671   54.4962   23.9457 C   0  0  2  0  0  0  0  0  0  0  0  0
   53.6480   47.6947   21.5422 O   0  0  0  0  0  0  0  0  0  0  0  0
   47.4940   53.4025   19.8331 N   0  0  0  0  0  0  0  0  0  0  0  0
   48.7124   52.7782   20.1240 C   0  0  0  0  0  0  0  0  0  0  0  0
   49.4955   53.2056   21.2811 N   0  0  0  0  0  0  0  0  0  0  0  0
   49.0387   54.2163   22.0843 C   0  0  0  0  0  0  0  0  0  0  0  0
   47.8124   54.8405   21.7834 C   0  0  0  0  0  0  0  0  0  0  0  0
   47.0329   54.4145   20.6296 C   0  0  0  0  0  0  0  0  0  0  0  0
   45.7582   55.0611   20.3158 N   0  0  0  0  0  0  0  0  0  0  0  0
   47.5755   55.8585   22.7776 N   0  0  0  0  0  0  0  0  0  0  0  0
   48.6676   55.8451   23.6769 C   0  0  0  0  0  0  0  0  0  0  0  0
   49.5831   54.8339   23.2657 N   0  0  0  0  0  0  0  0  0  0  0  0
  2  1  1  6  0  0  0
  2  3  1  0  0  0  0
  2  5  1  0  0  0  0
  3  4  1  0  0  0  0
  3 17  1  0  0  0  0
  5  6  1  0  0  0  0
  7  6  1  1  0  0  0
  7  8  1  0  0  0  0
  7  9  1  0  0  0  0
 10  9  1  6  0  0  0
 10 11  1  0  0  0  0
 10 12  1  0  0  0  0
 11 16  1  0  0  0  0
 12 13  1  1  0  0  0
 12 14  1  0  0  0  0
 14 15  1  1  0  0  0
 14 16  1  0  0  0  0
 16 27  1  6  0  0  0
 18 19  2  0  0  0  0
 18 23  1  0  0  0  0
 19 20  1  0  0  0  0
 20 21  2  0  0  0  0
 21 22  1  0  0  0  0
 21 27  1  0  0  0  0
 22 23  2  0  0  0  0
 22 25  1  0  0  0  0
 23 24  1  0  0  0  0
 25 26  2  0  0  0  0
 26 27  1  0  0  0  0
M  END
>  <CHROM.1>
-28.45261045,-176.50660088,-68.63285646,-62.21079272,56.42646643,131.31454432
24.34238251,51.50784136,52.05221322,22.84351098,0.27604499,0.68383569,-2.13659887

>  <Name>
ligand

>  <RI>
0

>  <Rbt.Current_Directory>
/home/itssahil/PROJECTS/Mol_Feturizer/New_Systems/rnas/3GX2

>  <Rbt.Executable>
rbdock ($Id: //depot/dev/client3/rdock/2013.1/src/exe/rbdock.cxx#4 $)

>  <Rbt.Library>
libRbt.so (2013.1, Build901 2013/11/27)

>  <Rbt.Parameter_File>
/export/apps/rDock/src/rDock_2013.1_src/data/scripts/dock_solv.prm

>  <Rbt.Receptor>
prm/blind_docking_80.prm

>  <SCORE>
-10.4702

>  <SCORE.INTER>
-9.26543

>  <SCORE.INTER.CONST>
1

>  <SCORE.INTER.POLAR>
0

>  <SCORE.INTER.ROT>
7

>  <SCORE.INTER.SOLV>
21.7452

>  <SCORE.INTER.VDW>
-21.692

>  <SCORE.INTER.norm>
-0.343164

>  <SCORE.INTRA>
-1.22914

>  <SCORE.INTRA.DIHEDRAL>
-4.07874

>  <SCORE.INTRA.DIHEDRAL.0>
13.9704

>  <SCORE.INTRA.POLAR>
0

>  <SCORE.INTRA.POLAR.0>
0

>  <SCORE.INTRA.REPUL>
0

>  <SCORE.INTRA.REPUL.0>
0

>  <SCORE.INTRA.SOLV>
2.31412

>  <SCORE.INTRA.SOLV.lig_0>
-70.9758

>  <SCORE.INTRA.VDW>
-0.346834

>  <SCORE.INTRA.VDW.0>
-2.70686

>  <SCORE.INTRA.norm>
-0.0455238

>  <SCORE.RESTR>
0.0243681

>  <SCORE.RESTR.CAVITY>
0.0243681

>  <SCORE.RESTR.norm>
0.000902521

>  <SCORE.SYSTEM>
0

>  <SCORE.SYSTEM.CONST>
0

>  <SCORE.SYSTEM.DIHEDRAL>
0

>  <SCORE.SYSTEM.SOLV>
0

>  <SCORE.SYSTEM.norm>
0

>  <SCORE.heavy>
27

>  <SCORE.norm>
-0.387785

>  <RMSD>
11.217

$$$$
ligand
 OpenBabel11021811473D
libRbt.so/2013.1/901 2013/11/27
 27 29  0  0  0  0  0  0  0  0999 V2000
   56.4421   50.0240   23.0258 N   0  0  0  0  0  0  0  0  0  0  0  0
   55.3197   49.1222   22.7770 C   0  0  2  0  0  0  0  0  0  0  0  0
   54.5160   49.4613   21.5199 C   0  0  0  0  0  0  0  0  0  0  0  0
   54.4547   50.5932   21.1709 O   0  0  0  0  0  0  0  0  0  0  0  0
   54.4276   48.8513   24.0066 C   0  0  0  0  0  0  0  0  0  0  0  0
   54.0451   50.0282   24.9467 C   0  0  0  0  0  0  0  0  0  0  0  0
   52.8866   50.9354   24.4533 C   0  0  2  0  0  0  0  0  0  0  0  0
   53.2703   51.7872   23.3276 N   0  0  0  0  0  0  0  0  0  0  0  0
   52.2201   51.7266   25.6208 C   0  0  0  0  0  0  0  0  0  0  0  0
   51.0507   52.7124   25.2844 C   0  0  1  0  0  0  0  0  0  0  0  0
   51.3310   53.9002   24.4859 O   0  0  0  0  0  0  0  0  0  0  0  0
   49.7798   52.0975   24.6341 C   0  0  1  0  0  0  0  0  0  0  0  0
   48.9929   51.1967   25.4243 O   0  0  0  0  0  0  0  0  0  0  0  0
   49.0776   53.2856   23.9065 C   0  0  1  0  0  0  0  0  0  0  0  0
   47.8649   53.7628   24.4380 O   0  0  0  0  0  0  0  0  0  0  0  0
   50.2276   54.2732   23.6852 C   0  0  2  0  0  0  0  0  0  0  0  0
   54.2923   48.4430   20.5718 O   0  0  0  0  0  0  0  0  0  0  0  0
   48.7439   55.8270   18.6980 N   0  0  0  0  0  0  0  0  0  0  0  0
   47.9967   55.9239   19.8775 C   0  0  0  0  0  0  0  0  0  0  0  0
   48.5589   55.4509   21.1406 N   0  0  0  0  0  0  0  0  0  0  0  0
   49.8180   54.9136   21.1736 C   0  0  0  0  0  0  0  0  0  0  0  0
   50.5625   54.8180   19.9817 C   0  0  0  0  0  0  0  0  0  0  0  0
   50.0013   55.2889   18.7232 C   0  0  0  0  0  0  0  0  0  0  0  0
   50.7735   55.1913   17.4840 N   0  0  0  0  0  0  0  0  0  0  0  0
   51.8363   54.2202   20.2993 N   0  0  0  0  0  0  0  0  0  0  0  0
   51.8531   53.9542   21.6888 C   0  0  0  0  0  0  0  0  0  0  0  0
   50.6132   54.3782   22.2481 N   0  0  0  0  0  0  0  0  0  0  0  0
  2  1  1  1  0  0  0
  2  3  1  0  0  0  0
  2  5  1  0  0  0  0
  3  4  1  0  0  0  0
  3 17  1  0  0  0  0
  5  6  1  0  0  0  0
  7  6  1  1  0  0  0
  7  8  1  0  0  0  0
  7  9  1  0  0  0  0
 10  9  1  6  0  0  0
 10 11  1  0  0  0  0
 10 12  1  0  0  0  0
 11 16  1  0  0  0  0
 12 13  1  1  0  0  0
 12 14  1  0  0  0  0
 14 15  1  1  0  0  0
 14 16  1  0  0  0  0
 16 27  1  6  0  0  0
 18 19  2  0  0  0  0
 18 23  1  0  0  0  0
 19 20  1  0  0  0  0
 20 21  2  0  0  0  0
 21 22  1  0  0  0  0
 21 27  1  0  0  0  0
 22 23  2  0  0  0  0
 22 25  1  0  0  0  0
 23 24  1  0  0  0  0
 25 26  2  0  0  0  0
 26 27  1  0  0  0  0
M  END
>  <CHROM.1>
-29.90983975,42.23963081,79.89173337,-71.87981397,178.75121040,-66.07795069
-170.41730887,51.54730900,52.59926854,22.44613748,-0.61298815,0.66072751
-1.18235879

>  <Name>
ligand

>  <RI>
0

>  <Rbt.Current_Directory>
/home/itssahil/PROJECTS/Mol_Feturizer/New_Systems/rnas/3GX2

>  <Rbt.Executable>
rbdock ($Id: //depot/dev/client3/rdock/2013.1/src/exe/rbdock.cxx#4 $)

>  <Rbt.Library>
libRbt.so (2013.1, Build901 2013/11/27)

>  <Rbt.Parameter_File>
/export/apps/rDock/src/rDock_2013.1_src/data/scripts/dock_solv.prm

>  <Rbt.Receptor>
prm/blind_docking_80.prm

>  <SCORE>
-13.1847

>  <SCORE.INTER>
-12.7088

>  <SCORE.INTER.CONST>
1

>  <SCORE.INTER.POLAR>
0

>  <SCORE.INTER.ROT>
7

>  <SCORE.INTER.SOLV>
14.8368

>  <SCORE.INTER.VDW>
-21.6848

>  <SCORE.INTER.norm>
-0.470696

>  <SCORE.INTRA>
-0.475874

>  <SCORE.INTRA.DIHEDRAL>
-6.29538

>  <SCORE.INTRA.DIHEDRAL.0>
13.9704

>  <SCORE.INTRA.POLAR>
0

>  <SCORE.INTRA.POLAR.0>
0

>  <SCORE.INTRA.REPUL>
0

>  <SCORE.INTRA.REPUL.0>
0

>  <SCORE.INTRA.SOLV>
6.88385

>  <SCORE.INTRA.SOLV.lig_0>
-70.9758

>  <SCORE.INTRA.VDW>
-0.770109

>  <SCORE.INTRA.VDW.0>
-2.70686

>  <SCORE.INTRA.norm>
-0.017625

>  <SCORE.RESTR>
0

>  <SCORE.RESTR.CAVITY>
0

>  <SCORE.RESTR.norm>
0

>  <SCORE.SYSTEM>
0

>  <SCORE.SYSTEM.CONST>
0

>  <SCORE.SYSTEM.DIHEDRAL>
0

>  <SCORE.SYSTEM.SOLV>
0

>  <SCORE.SYSTEM.norm>
0

>  <SCORE.heavy>
27

>  <SCORE.norm>
-0.488321

>  <RMSD>
11.268

$$$$
ligand
 OpenBabel11021811473D
libRbt.so/2013.1/901 2013/11/27
 27 29  0  0  0  0  0  0  0  0999 V2000
   54.3859   47.6585   19.5592 N   0  0  0  0  0  0  0  0  0  0  0  0
   55.2868   47.4491   20.6904 C   0  0  2  0  0  0  0  0  0  0  0  0
   55.1321   46.0843   21.3647 C   0  0  0  0  0  0  0  0  0  0  0  0
   54.0767   45.5446   21.3230 O   0  0  0  0  0  0  0  0  0  0  0  0
   55.3350   48.6163   21.6986 C   0  0  0  0  0  0  0  0  0  0  0  0
   54.0732   48.9491   22.5426 C   0  0  0  0  0  0  0  0  0  0  0  0
   54.1127   50.2970   23.3107 C   0  0  2  0  0  0  0  0  0  0  0  0
   55.3279   50.4626   24.1081 N   0  0  0  0  0  0  0  0  0  0  0  0
   52.8065   50.5492   24.1252 C   0  0  0  0  0  0  0  0  0  0  0  0
   52.5327   51.9908   24.6721 C   0  0  1  0  0  0  0  0  0  0  0  0
   52.5914   53.1217   23.7530 O   0  0  0  0  0  0  0  0  0  0  0  0
   51.2123   52.2016   25.4645 C   0  0  1  0  0  0  0  0  0  0  0  0
   51.0753   51.5349   26.7262 O   0  0  0  0  0  0  0  0  0  0  0  0
   50.9224   53.7320   25.3757 C   0  0  1  0  0  0  0  0  0  0  0  0
   51.0641   54.5010   26.5459 O   0  0  0  0  0  0  0  0  0  0  0  0
   51.6923   54.1492   24.1187 C   0  0  2  0  0  0  0  0  0  0  0  0
   56.2875   45.3059   21.5762 O   0  0  0  0  0  0  0  0  0  0  0  0
   46.6244   54.0113   22.1731 N   0  0  0  0  0  0  0  0  0  0  0  0
   47.0783   53.5186   23.4020 C   0  0  0  0  0  0  0  0  0  0  0  0
   48.4886   53.6423   23.7639 N   0  0  0  0  0  0  0  0  0  0  0  0
   49.3687   54.2417   22.9029 C   0  0  0  0  0  0  0  0  0  0  0  0
   48.9039   54.7332   21.6674 C   0  0  0  0  0  0  0  0  0  0  0  0
   47.4985   54.6089   21.3071 C   0  0  0  0  0  0  0  0  0  0  0  0
   47.0136   55.1197   20.0244 N   0  0  0  0  0  0  0  0  0  0  0  0
   50.0266   55.3061   20.9657 N   0  0  0  0  0  0  0  0  0  0  0  0
   51.1700   55.1542   21.7849 C   0  0  0  0  0  0  0  0  0  0  0  0
   50.7828   54.4992   22.9895 N   0  0  0  0  0  0  0  0  0  0  0  0
  2  1  1  6  0  0  0
  2  3  1  0  0  0  0
  2  5  1  0  0  0  0
  3  4  1  0  0  0  0
  3 17  1  0  0  0  0
  5  6  1  0  0  0  0
  7  6  1  1  0  0  0
  7  8  1  0  0  0  0
  7  9  1  0  0  0  0
 10  9  1  6  0  0  0
 10 11  1  0  0  0  0
 10 12  1  0  0  0  0
 11 16  1  0  0  0  0
 12 13  1  1  0  0  0
 12 14  1  0  0  0  0
 14 15  1  1  0  0  0
 14 16  1  0  0  0  0
 16 27  1  6  0  0  0
 18 19  2  0  0  0  0
 18 23  1  0  0  0  0
 19 20  1  0  0  0  0
 20 21  2  0  0  0  0
 21 22  1  0  0  0  0
 21 27  1  0  0  0  0
 22 23  2  0  0  0  0
 22 25  1  0  0  0  0
 23 24  1  0  0  0  0
 25 26  2  0  0  0  0
 26 27  1  0  0  0  0
M  END
>  <CHROM.1>
-28.23626727,66.50514895,-168.13077639,-50.92109301,-165.50657165,52.25171514
110.52055456,51.75083770,51.63690841,22.92131470,0.50113489,0.75310878,-2.08177425

>  <Name>
ligand

>  <RI>
0

>  <Rbt.Current_Directory>
/home/itssahil/PROJECTS/Mol_Feturizer/New_Systems/rnas/3GX2

>  <Rbt.Executable>
rbdock ($Id: //depot/dev/client3/rdock/2013.1/src/exe/rbdock.cxx#4 $)

>  <Rbt.Library>
libRbt.so (2013.1, Build901 2013/11/27)

>  <Rbt.Parameter_File>
/export/apps/rDock/src/rDock_2013.1_src/data/scripts/dock_solv.prm

>  <Rbt.Receptor>
prm/blind_docking_80.prm

>  <SCORE>
-10.1311

>  <SCORE.INTER>
-7.31019

>  <SCORE.INTER.CONST>
1

>  <SCORE.INTER.POLAR>
0

>  <SCORE.INTER.ROT>
7

>  <SCORE.INTER.SOLV>
20.3517

>  <SCORE.INTER.VDW>
-19.924

>  <SCORE.INTER.norm>
-0.270748

>  <SCORE.INTRA>
-2.82832

>  <SCORE.INTRA.DIHEDRAL>
-7.63333

>  <SCORE.INTRA.DIHEDRAL.0>
13.9704

>  <SCORE.INTRA.POLAR>
0

>  <SCORE.INTRA.POLAR.0>
0

>  <SCORE.INTRA.REPUL>
0

>  <SCORE.INTRA.REPUL.0>
0

>  <SCORE.INTRA.SOLV>
0.955924

>  <SCORE.INTRA.SOLV.lig_0>
-70.9758

>  <SCORE.INTRA.VDW>
0.51039

>  <SCORE.INTRA.VDW.0>
-2.70686

>  <SCORE.INTRA.norm>
-0.104752

>  <SCORE.RESTR>
0.00742672

>  <SCORE.RESTR.CAVITY>
0.00742672

>  <SCORE.RESTR.norm>
0.000275064

>  <SCORE.SYSTEM>
0

>  <SCORE.SYSTEM.CONST>
0

>  <SCORE.SYSTEM.DIHEDRAL>
0

>  <SCORE.SYSTEM.SOLV>
0

>  <SCORE.SYSTEM.norm>
0

>  <SCORE.heavy>
27

>  <SCORE.norm>
-0.375225

>  <RMSD>
11.326

$$$$
ligand
 OpenBabel11021811473D
libRbt.so/2013.1/901 2013/11/27
 27 29  0  0  0  0  0  0  0  0999 V2000
   50.8010   54.4780   15.9247 N   0  0  0  0  0  0  0  0  0  0  0  0
   52.1351   54.4837   16.5208 C   0  0  2  0  0  0  0  0  0  0  0  0
   53.2512   54.0876   15.5520 C   0  0  0  0  0  0  0  0  0  0  0  0
   52.9820   53.4018   14.6224 O   0  0  0  0  0  0  0  0  0  0  0  0
   52.2347   53.7616   17.8809 C   0  0  0  0  0  0  0  0  0  0  0  0
   51.4417   54.3133   19.0983 C   0  0  0  0  0  0  0  0  0  0  0  0
   51.5959   53.5152   20.4204 C   0  0  2  0  0  0  0  0  0  0  0  0
   50.7181   54.0016   21.4847 N   0  0  0  0  0  0  0  0  0  0  0  0
   53.0864   53.3926   20.8638 C   0  0  0  0  0  0  0  0  0  0  0  0
   53.4077   52.6674   22.2141 C   0  0  1  0  0  0  0  0  0  0  0  0
   52.7657   53.1308   23.4390 O   0  0  0  0  0  0  0  0  0  0  0  0
   53.2292   51.1236   22.2413 C   0  0  1  0  0  0  0  0  0  0  0  0
   54.1119   50.3336   21.4339 O   0  0  0  0  0  0  0  0  0  0  0  0
   53.0434   50.7602   23.7471 C   0  0  1  0  0  0  0  0  0  0  0  0
   54.0837   50.0668   24.3933 O   0  0  0  0  0  0  0  0  0  0  0  0
   52.5432   52.0755   24.3526 C   0  0  2  0  0  0  0  0  0  0  0  0
   54.4048   54.8946   15.4917 O   0  0  0  0  0  0  0  0  0  0  0  0
   47.7618   54.6404   24.5699 N   0  0  0  0  0  0  0  0  0  0  0  0
   48.9684   55.1307   24.0576 C   0  0  0  0  0  0  0  0  0  0  0  0
   50.1667   54.2949   24.0814 N   0  0  0  0  0  0  0  0  0  0  0  0
   50.1117   53.0300   24.6031 C   0  0  0  0  0  0  0  0  0  0  0  0
   48.8938   52.5450   25.1183 C   0  0  0  0  0  0  0  0  0  0  0  0
   47.7001   53.3788   25.0949 C   0  0  0  0  0  0  0  0  0  0  0  0
   46.4337   52.8763   25.6289 N   0  0  0  0  0  0  0  0  0  0  0  0
   49.1169   51.2035   25.5995 N   0  0  0  0  0  0  0  0  0  0  0  0
   50.4767   50.8850   25.3734 C   0  0  0  0  0  0  0  0  0  0  0  0
   51.1088   52.0024   24.7554 N   0  0  0  0  0  0  0  0  0  0  0  0
  2  1  1  6  0  0  0
  2  3  1  0  0  0  0
  2  5  1  0  0  0  0
  3  4  1  0  0  0  0
  3 17  1  0  0  0  0
  5  6  1  0  0  0  0
  7  6  1  6  0  0  0
  7  8  1  0  0  0  0
  7  9  1  0  0  0  0
 10  9  1  6  0  0  0
 10 11  1  0  0  0  0
 10 12  1  0  0  0  0
 11 16  1  0  0  0  0
 12 13  1  1  0  0  0
 12 14  1  0  0  0  0
 14 15  1  1  0  0  0
 14 16  1  0  0  0  0
 16 27  1  6  0  0  0
 18 19  2  0  0  0  0
 18 23  1  0  0  0  0
 19 20  1  0  0  0  0
 20 21  2  0  0  0  0
 21 22  1  0  0  0  0
 21 27  1  0  0  0  0
 22 23  2  0  0  0  0
 22 25  1  0  0  0  0
 23 24  1  0  0  0  0
 25 26  2  0  0  0  0
 26 27  1  0  0  0  0
M  END
>  <CHROM.1>
-25.29290530,-63.79320155,179.57033874,-173.94367242,177.40619965,-55.08871203
-17.23339708,51.44810512,52.96953741,21.68471923,1.16619744,0.51479151,-1.18643384

>  <Name>
ligand

>  <RI>
0

>  <Rbt.Current_Directory>
/home/itssahil/PROJECTS/Mol_Feturizer/New_Systems/rnas/3GX2

>  <Rbt.Executable>
rbdock ($Id: //depot/dev/client3/rdock/2013.1/src/exe/rbdock.cxx#4 $)

>  <Rbt.Library>
libRbt.so (2013.1, Build901 2013/11/27)

>  <Rbt.Parameter_File>
/export/apps/rDock/src/rDock_2013.1_src/data/scripts/dock_solv.prm

>  <Rbt.Receptor>
prm/blind_docking_80.prm

>  <SCORE>
-10.0068

>  <SCORE.INTER>
-7.22976

>  <SCORE.INTER.CONST>
1

>  <SCORE.INTER.POLAR>
0

>  <SCORE.INTER.ROT>
7

>  <SCORE.INTER.SOLV>
17.2644

>  <SCORE.INTER.VDW>
-18.8413

>  <SCORE.INTER.norm>
-0.267769

>  <SCORE.INTRA>
-2.77702

>  <SCORE.INTRA.DIHEDRAL>
-9.23083

>  <SCORE.INTRA.DIHEDRAL.0>
13.9704

>  <SCORE.INTRA.POLAR>
0

>  <SCORE.INTRA.POLAR.0>
0

>  <SCORE.INTRA.REPUL>
0

>  <SCORE.INTRA.REPUL.0>
0

>  <SCORE.INTRA.SOLV>
3.22581

>  <SCORE.INTRA.SOLV.lig_0>
-70.9758

>  <SCORE.INTRA.VDW>
0.225494

>  <SCORE.INTRA.VDW.0>
-2.70686

>  <SCORE.INTRA.norm>
-0.102852

>  <SCORE.RESTR>
0

>  <SCORE.RESTR.CAVITY>
0

>  <SCORE.RESTR.norm>
0

>  <SCORE.SYSTEM>
0

>  <SCORE.SYSTEM.CONST>
0

>  <SCORE.SYSTEM.DIHEDRAL>
0

>  <SCORE.SYSTEM.SOLV>
0

>  <SCORE.SYSTEM.norm>
0

>  <SCORE.heavy>
27

>  <SCORE.norm>
-0.370621

>  <RMSD>
11.366

$$$$
ligand
 OpenBabel11021811473D
libRbt.so/2013.1/901 2013/11/27
 27 29  0  0  0  0  0  0  0  0999 V2000
   51.7789   53.8660   16.3059 N   0  0  0  0  0  0  0  0  0  0  0  0
   51.1307   54.4611   17.4724 C   0  0  2  0  0  0  0  0  0  0  0  0
   51.2784   55.9817   17.5580 C   0  0  0  0  0  0  0  0  0  0  0  0
   52.0917   56.5143   16.8786 O   0  0  0  0  0  0  0  0  0  0  0  0
   51.4337   53.7511   18.8085 C   0  0  0  0  0  0  0  0  0  0  0  0
   52.9030   53.3942   19.1677 C   0  0  0  0  0  0  0  0  0  0  0  0
   53.1247   52.7986   20.5835 C   0  0  2  0  0  0  0  0  0  0  0  0
   52.8756   53.7649   21.6532 N   0  0  0  0  0  0  0  0  0  0  0  0
   54.5057   52.0847   20.7124 C   0  0  0  0  0  0  0  0  0  0  0  0
   54.7653   51.1785   21.9629 C   0  0  1  0  0  0  0  0  0  0  0  0
   54.6705   51.7635   23.2955 O   0  0  0  0  0  0  0  0  0  0  0  0
   53.9458   49.8611   22.0571 C   0  0  1  0  0  0  0  0  0  0  0  0
   54.2001   48.8434   21.0800 O   0  0  0  0  0  0  0  0  0  0  0  0
   53.9525   49.4832   23.5708 C   0  0  1  0  0  0  0  0  0  0  0  0
   54.7020   48.3604   23.9688 O   0  0  0  0  0  0  0  0  0  0  0  0
   54.2166   50.8288   24.2537 C   0  0  2  0  0  0  0  0  0  0  0  0
   50.1864   56.7361   18.0313 O   0  0  0  0  0  0  0  0  0  0  0  0
   51.3514   55.1840   25.7734 N   0  0  0  0  0  0  0  0  0  0  0  0
   52.5323   55.1614   25.0225 C   0  0  0  0  0  0  0  0  0  0  0  0
   53.1728   53.8872   24.7046 N   0  0  0  0  0  0  0  0  0  0  0  0
   52.6186   52.7126   25.1388 C   0  0  0  0  0  0  0  0  0  0  0  0
   51.4311   52.7444   25.8956 C   0  0  0  0  0  0  0  0  0  0  0  0
   50.7937   54.0148   26.2127 C   0  0  0  0  0  0  0  0  0  0  0  0
   49.5594   54.0498   26.9980 N   0  0  0  0  0  0  0  0  0  0  0  0
   51.0731   51.3850   26.2193 N   0  0  0  0  0  0  0  0  0  0  0  0
   52.0535   50.5352   25.6552 C   0  0  0  0  0  0  0  0  0  0  0  0
   53.0178   51.3382   24.9805 N   0  0  0  0  0  0  0  0  0  0  0  0
  2  1  1  6  0  0  0
  2  3  1  0  0  0  0
  2  5  1  0  0  0  0
  3  4  1  0  0  0  0
  3 17  1  0  0  0  0
  5  6  1  0  0  0  0
  7  6  1  6  0  0  0
  7  8  1  0  0  0  0
  7  9  1  0  0  0  0
 10  9  1  6  0  0  0
 10 11  1  0  0  0  0
 10 12  1  0  0  0  0
 11 16  1  0  0  0  0
 12 13  1  6  0  0  0
 12 14  1  0  0  0  0
 14 15  1  6  0  0  0
 14 16  1  0  0  0  0
 16 27  1  6  0  0  0
 18 19  2  0  0  0  0
 18 23  1  0  0  0  0
 19 20  1  0  0  0  0
 20 21  2  0  0  0  0
 21 22  1  0  0  0  0
 21 27  1  0  0  0  0
 22 23  2  0  0  0  0
 22 25  1  0  0  0  0
 23 24  1  0  0  0  0
 25 26  2  0  0  0  0
 26 27  1  0  0  0  0
M  END
>  <CHROM.1>
-15.01351206,47.66501047,174.71806798,-67.86668436,-167.40074058,-58.75475198
-22.74525048,52.59185460,52.76297657,22.26019988,-1.79332764,-0.99868491
1.81913370

>  <Name>
ligand

>  <RI>
0

>  <Rbt.Current_Directory>
/home/itssahil/PROJECTS/Mol_Feturizer/New_Systems/rnas/3GX2

>  <Rbt.Executable>
rbdock ($Id: //depot/dev/client3/rdock/2013.1/src/exe/rbdock.cxx#4 $)

>  <Rbt.Library>
libRbt.so (2013.1, Build901 2013/11/27)

>  <Rbt.Parameter_File>
/export/apps/rDock/src/rDock_2013.1_src/data/scripts/dock_solv.prm

>  <Rbt.Receptor>
prm/blind_docking_100.prm

>  <SCORE>
-14.6486

>  <SCORE.INTER>
-11.9269

>  <SCORE.INTER.CONST>
1

>  <SCORE.INTER.POLAR>
0

>  <SCORE.INTER.ROT>
7

>  <SCORE.INTER.SOLV>
13.3451

>  <SCORE.INTER.VDW>
-20.6663

>  <SCORE.INTER.norm>
-0.441737

>  <SCORE.INTRA>
-2.72168

>  <SCORE.INTRA.DIHEDRAL>
-7.8488

>  <SCORE.INTRA.DIHEDRAL.0>
13.9704

>  <SCORE.INTRA.POLAR>
0

>  <SCORE.INTRA.POLAR.0>
0

>  <SCORE.INTRA.REPUL>
0

>  <SCORE.INTRA.REPUL.0>
0

>  <SCORE.INTRA.SOLV>
2.8892

>  <SCORE.INTRA.SOLV.lig_0>
-70.9758

>  <SCORE.INTRA.VDW>
-0.241888

>  <SCORE.INTRA.VDW.0>
-2.70686

>  <SCORE.INTRA.norm>
-0.100803

>  <SCORE.RESTR>
0

>  <SCORE.RESTR.CAVITY>
0

>  <SCORE.RESTR.norm>
0

>  <SCORE.SYSTEM>
0

>  <SCORE.SYSTEM.CONST>
0

>  <SCORE.SYSTEM.DIHEDRAL>
0

>  <SCORE.SYSTEM.SOLV>
0

>  <SCORE.SYSTEM.norm>
0

>  <SCORE.heavy>
27

>  <SCORE.norm>
-0.54254

>  <RMSD>
11.373

$$$$
ligand
 OpenBabel11021811473D
libRbt.so/2013.1/901 2013/11/27
 27 29  0  0  0  0  0  0  0  0999 V2000
   46.4590   52.9751   26.9809 N   0  0  0  0  0  0  0  0  0  0  0  0
   46.2736   52.9018   25.5334 C   0  0  2  0  0  0  0  0  0  0  0  0
   44.9059   52.3637   25.1078 C   0  0  0  0  0  0  0  0  0  0  0  0
   44.5411   52.5511   23.9949 O   0  0  0  0  0  0  0  0  0  0  0  0
   47.4425   52.2472   24.7677 C   0  0  0  0  0  0  0  0  0  0  0  0
   48.8538   52.8948   24.8295 C   0  0  0  0  0  0  0  0  0  0  0  0
   48.9408   54.3678   24.3486 C   0  0  2  0  0  0  0  0  0  0  0  0
   48.4695   55.3228   25.3515 N   0  0  0  0  0  0  0  0  0  0  0  0
   48.2792   54.5710   22.9507 C   0  0  0  0  0  0  0  0  0  0  0  0
   49.2058   54.8324   21.7156 C   0  0  1  0  0  0  0  0  0  0  0  0
   50.6523   54.8401   21.9024 O   0  0  0  0  0  0  0  0  0  0  0  0
   48.9796   53.9357   20.4664 C   0  0  1  0  0  0  0  0  0  0  0  0
   47.7419   54.0765   19.7568 O   0  0  0  0  0  0  0  0  0  0  0  0
   50.3227   53.9916   19.6746 C   0  0  1  0  0  0  0  0  0  0  0  0
   50.3404   54.6860   18.4506 O   0  0  0  0  0  0  0  0  0  0  0  0
   51.3370   54.3742   20.7570 C   0  0  2  0  0  0  0  0  0  0  0  0
   44.3505   51.2924   25.8355 O   0  0  0  0  0  0  0  0  0  0  0  0
   52.6143   50.4914   24.3318 N   0  0  0  0  0  0  0  0  0  0  0  0
   51.5705   51.4196   24.4197 C   0  0  0  0  0  0  0  0  0  0  0  0
   51.3734   52.4017   23.3559 N   0  0  0  0  0  0  0  0  0  0  0  0
   52.2079   52.4153   22.2703 C   0  0  0  0  0  0  0  0  0  0  0  0
   53.2571   51.4789   22.1906 C   0  0  0  0  0  0  0  0  0  0  0  0
   53.4534   50.5009   23.2515 C   0  0  0  0  0  0  0  0  0  0  0  0
   54.5422   49.5266   23.1700 N   0  0  0  0  0  0  0  0  0  0  0  0
   53.9724   51.7157   20.9605 N   0  0  0  0  0  0  0  0  0  0  0  0
   53.3493   52.8016   20.3017 C   0  0  0  0  0  0  0  0  0  0  0  0
   52.2535   53.2473   21.0959 N   0  0  0  0  0  0  0  0  0  0  0  0
  2  1  1  1  0  0  0
  2  3  1  0  0  0  0
  2  5  1  0  0  0  0
  3  4  1  0  0  0  0
  3 17  1  0  0  0  0
  5  6  1  0  0  0  0
  7  6  1  1  0  0  0
  7  8  1  0  0  0  0
  7  9  1  0  0  0  0
 10  9  1  1  0  0  0
 10 11  1  0  0  0  0
 10 12  1  0  0  0  0
 11 16  1  0  0  0  0
 12 13  1  6  0  0  0
 12 14  1  0  0  0  0
 14 15  1  6  0  0  0
 14 16  1  0  0  0  0
 16 27  1  1  0  0  0
 18 19  2  0  0  0  0
 18 23  1  0  0  0  0
 19 20  1  0  0  0  0
 20 21  2  0  0  0  0
 21 22  1  0  0  0  0
 21 27  1  0  0  0  0
 22 23  2  0  0  0  0
 22 25  1  0  0  0  0
 23 24  1  0  0  0  0
 25 26  2  0  0  0  0
 26 27  1  0  0  0  0
M  END
>  <CHROM.1>
162.77048193,-61.28859042,-57.65302473,78.72641386,-108.31395150,1.71464446
18.79692048,49.72300912,52.92738759,22.87409025,-2.76976742,0.33950166,-1.00779466

>  <Name>
ligand

>  <RI>
0

>  <Rbt.Current_Directory>
/home/itssahil/PROJECTS/Mol_Feturizer/New_Systems/rnas/3GX2

>  <Rbt.Executable>
rbdock ($Id: //depot/dev/client3/rdock/2013.1/src/exe/rbdock.cxx#4 $)

>  <Rbt.Library>
libRbt.so (2013.1, Build901 2013/11/27)

>  <Rbt.Parameter_File>
/export/apps/rDock/src/rDock_2013.1_src/data/scripts/dock_solv.prm

>  <Rbt.Receptor>
prm/blind_docking_80.prm

>  <SCORE>
-10.574

>  <SCORE.INTER>
-13.0038

>  <SCORE.INTER.CONST>
1

>  <SCORE.INTER.POLAR>
0

>  <SCORE.INTER.ROT>
7

>  <SCORE.INTER.SOLV>
12.809

>  <SCORE.INTER.VDW>
-21.2055

>  <SCORE.INTER.norm>
-0.481621

>  <SCORE.INTRA>
2.42976

>  <SCORE.INTRA.DIHEDRAL>
2.47266

>  <SCORE.INTRA.DIHEDRAL.0>
13.9704

>  <SCORE.INTRA.POLAR>
0

>  <SCORE.INTRA.POLAR.0>
0

>  <SCORE.INTRA.REPUL>
0

>  <SCORE.INTRA.REPUL.0>
0

>  <SCORE.INTRA.SOLV>
2.76283

>  <SCORE.INTRA.SOLV.lig_0>
-70.9758

>  <SCORE.INTRA.VDW>
-0.187986

>  <SCORE.INTRA.VDW.0>
-2.70686

>  <SCORE.INTRA.norm>
0.0899911

>  <SCORE.RESTR>
0

>  <SCORE.RESTR.CAVITY>
0

>  <SCORE.RESTR.norm>
0

>  <SCORE.SYSTEM>
0

>  <SCORE.SYSTEM.CONST>
0

>  <SCORE.SYSTEM.DIHEDRAL>
0

>  <SCORE.SYSTEM.SOLV>
0

>  <SCORE.SYSTEM.norm>
0

>  <SCORE.heavy>
27

>  <SCORE.norm>
-0.391629

>  <RMSD>
11.481

$$$$
ligand
 OpenBabel11021811473D
libRbt.so/2013.1/901 2013/11/27
 27 29  0  0  0  0  0  0  0  0999 V2000
   48.8974   51.7587   27.9641 N   0  0  0  0  0  0  0  0  0  0  0  0
   48.6342   52.6020   26.8002 C   0  0  2  0  0  0  0  0  0  0  0  0
   48.6442   51.8466   25.4696 C   0  0  0  0  0  0  0  0  0  0  0  0
   49.0647   50.7378   25.4471 O   0  0  0  0  0  0  0  0  0  0  0  0
   49.4517   53.9100   26.7557 C   0  0  0  0  0  0  0  0  0  0  0  0
   49.1863   54.9382   25.6211 C   0  0  0  0  0  0  0  0  0  0  0  0
   49.9213   54.6677   24.2813 C   0  0  2  0  0  0  0  0  0  0  0  0
   51.3777   54.7106   24.4121 N   0  0  0  0  0  0  0  0  0  0  0  0
   49.3837   55.5638   23.1232 C   0  0  0  0  0  0  0  0  0  0  0  0
   49.9288   55.3215   21.6753 C   0  0  1  0  0  0  0  0  0  0  0  0
   51.3634   55.1504   21.4762 O   0  0  0  0  0  0  0  0  0  0  0  0
   49.2828   54.1614   20.8673 C   0  0  1  0  0  0  0  0  0  0  0  0
   47.9067   54.2951   20.4883 O   0  0  0  0  0  0  0  0  0  0  0  0
   50.3385   53.7811   19.7834 C   0  0  1  0  0  0  0  0  0  0  0  0
   50.0523   54.0968   18.4420 O   0  0  0  0  0  0  0  0  0  0  0  0
   51.6491   54.2824   20.3979 C   0  0  2  0  0  0  0  0  0  0  0  0
   47.7539   52.2583   24.4579 O   0  0  0  0  0  0  0  0  0  0  0  0
   52.6710   50.4887   24.1463 N   0  0  0  0  0  0  0  0  0  0  0  0
   51.6268   51.4206   24.1408 C   0  0  0  0  0  0  0  0  0  0  0  0
   51.5047   52.3760   23.0420 N   0  0  0  0  0  0  0  0  0  0  0  0
   52.4100   52.3607   22.0147 C   0  0  0  0  0  0  0  0  0  0  0  0
   53.4590   51.4208   22.0289 C   0  0  0  0  0  0  0  0  0  0  0  0
   53.5805   50.4695   23.1247 C   0  0  0  0  0  0  0  0  0  0  0  0
   54.6690   49.4916   23.1408 N   0  0  0  0  0  0  0  0  0  0  0  0
   54.2558   51.6252   20.8439 N   0  0  0  0  0  0  0  0  0  0  0  0
   53.6819   52.6953   20.1179 C   0  0  0  0  0  0  0  0  0  0  0  0
   52.5370   53.1628   20.8255 N   0  0  0  0  0  0  0  0  0  0  0  0
  2  1  1  1  0  0  0
  2  3  1  0  0  0  0
  2  5  1  0  0  0  0
  3  4  1  0  0  0  0
  3 17  1  0  0  0  0
  5  6  1  0  0  0  0
  7  6  1  1  0  0  0
  7  8  1  0  0  0  0
  7  9  1  0  0  0  0
 10  9  1  1  0  0  0
 10 11  1  0  0  0  0
 10 12  1  0  0  0  0
 11 16  1  0  0  0  0
 12 13  1  6  0  0  0
 12 14  1  0  0  0  0
 14 15  1  6  0  0  0
 14 16  1  0  0  0  0
 16 27  1  1  0  0  0
 18 19  2  0  0  0  0
 18 23  1  0  0  0  0
 19 20  1  0  0  0  0
 20 21  2  0  0  0  0
 21 22  1  0  0  0  0
 21 27  1  0  0  0  0
 22 23  2  0  0  0  0
 22 25  1  0  0  0  0
 23 24  1  0  0  0  0
 25 26  2  0  0  0  0
 26 27  1  0  0  0  0
M  END
>  <CHROM.1>
-12.07222764,-175.62490224,-83.76111925,-62.37041980,-174.44258941,-45.53839939
45.19728486,50.78048770,52.97609141,22.99475655,-2.21627130,0.62282403,-1.09188091

>  <Name>
ligand

>  <RI>
0

>  <Rbt.Current_Directory>
/home/itssahil/PROJECTS/Mol_Feturizer/New_Systems/rnas/3GX2

>  <Rbt.Executable>
rbdock ($Id: //depot/dev/client3/rdock/2013.1/src/exe/rbdock.cxx#4 $)

>  <Rbt.Library>
libRbt.so (2013.1, Build901 2013/11/27)

>  <Rbt.Parameter_File>
/export/apps/rDock/src/rDock_2013.1_src/data/scripts/dock_solv.prm

>  <Rbt.Receptor>
prm/blind_docking_80.prm

>  <SCORE>
-12.4439

>  <SCORE.INTER>
-9.34344

>  <SCORE.INTER.CONST>
1

>  <SCORE.INTER.POLAR>
0

>  <SCORE.INTER.ROT>
7

>  <SCORE.INTER.SOLV>
14.6149

>  <SCORE.INTER.VDW>
-19.3672

>  <SCORE.INTER.norm>
-0.346053

>  <SCORE.INTRA>
-3.10659

>  <SCORE.INTRA.DIHEDRAL>
-6.26749

>  <SCORE.INTRA.DIHEDRAL.0>
13.9704

>  <SCORE.INTRA.POLAR>
0

>  <SCORE.INTRA.POLAR.0>
0

>  <SCORE.INTRA.REPUL>
0

>  <SCORE.INTRA.REPUL.0>
0

>  <SCORE.INTRA.SOLV>
4.08489

>  <SCORE.INTRA.SOLV.lig_0>
-70.9758

>  <SCORE.INTRA.VDW>
-2.01529

>  <SCORE.INTRA.VDW.0>
-2.70686

>  <SCORE.INTRA.norm>
-0.115059

>  <SCORE.RESTR>
0.0061011

>  <SCORE.RESTR.CAVITY>
0.0061011

>  <SCORE.RESTR.norm>
0.000225967

>  <SCORE.SYSTEM>
0

>  <SCORE.SYSTEM.CONST>
0

>  <SCORE.SYSTEM.DIHEDRAL>
0

>  <SCORE.SYSTEM.SOLV>
0

>  <SCORE.SYSTEM.norm>
0

>  <SCORE.heavy>
27

>  <SCORE.norm>
-0.460886

>  <RMSD>
11.524

$$$$
ligand
 OpenBabel11021811473D
libRbt.so/2013.1/901 2013/11/27
 27 29  0  0  0  0  0  0  0  0999 V2000
   53.6102   55.7325   16.9390 N   0  0  0  0  0  0  0  0  0  0  0  0
   53.3712   54.3067   16.7269 C   0  0  2  0  0  0  0  0  0  0  0  0
   52.3819   54.0026   15.5999 C   0  0  0  0  0  0  0  0  0  0  0  0
   52.6032   53.0869   14.8792 O   0  0  0  0  0  0  0  0  0  0  0  0
   53.0830   53.5046   18.0132 C   0  0  0  0  0  0  0  0  0  0  0  0
   54.2181   53.2968   19.0541 C   0  0  0  0  0  0  0  0  0  0  0  0
   53.7839   52.6795   20.4102 C   0  0  2  0  0  0  0  0  0  0  0  0
   52.9568   53.5840   21.2087 N   0  0  0  0  0  0  0  0  0  0  0  0
   54.9919   52.0928   21.2038 C   0  0  0  0  0  0  0  0  0  0  0  0
   54.7114   51.3604   22.5593 C   0  0  1  0  0  0  0  0  0  0  0  0
   54.0501   52.0887   23.6361 O   0  0  0  0  0  0  0  0  0  0  0  0
   53.9517   50.0067   22.4813 C   0  0  1  0  0  0  0  0  0  0  0  0
   54.6138   48.9031   21.8497 O   0  0  0  0  0  0  0  0  0  0  0  0
   53.3216   49.8098   23.8949 C   0  0  1  0  0  0  0  0  0  0  0  0
   53.8502   48.7991   24.7196 O   0  0  0  0  0  0  0  0  0  0  0  0
   53.2483   51.2417   24.4344 C   0  0  2  0  0  0  0  0  0  0  0  0
   51.0565   54.4637   15.7283 O   0  0  0  0  0  0  0  0  0  0  0  0
   49.0193   52.3703   27.6484 N   0  0  0  0  0  0  0  0  0  0  0  0
   50.2680   51.8663   28.0299 C   0  0  0  0  0  0  0  0  0  0  0  0
   51.2967   51.6202   27.0218 N   0  0  0  0  0  0  0  0  0  0  0  0
   51.0423   51.8835   25.7023 C   0  0  0  0  0  0  0  0  0  0  0  0
   49.7823   52.3889   25.3266 C   0  0  0  0  0  0  0  0  0  0  0  0
   48.7574   52.6332   26.3317 C   0  0  0  0  0  0  0  0  0  0  0  0
   47.4481   53.1590   25.9435 N   0  0  0  0  0  0  0  0  0  0  0  0
   49.7848   52.5716   23.8957 N   0  0  0  0  0  0  0  0  0  0  0  0
   51.0525   52.1708   23.4122 C   0  0  0  0  0  0  0  0  0  0  0  0
   51.8459   51.7434   24.5157 N   0  0  0  0  0  0  0  0  0  0  0  0
  2  1  1  1  0  0  0
  2  3  1  0  0  0  0
  2  5  1  0  0  0  0
  3  4  1  0  0  0  0
  3 17  1  0  0  0  0
  5  6  1  0  0  0  0
  7  6  1  6  0  0  0
  7  8  1  0  0  0  0
  7  9  1  0  0  0  0
 10  9  1  6  0  0  0
 10 11  1  0  0  0  0
 10 12  1  0  0  0  0
 11 16  1  0  0  0  0
 12 13  1  1  0  0  0
 12 14  1  0  0  0  0
 14 15  1  1  0  0  0
 14 16  1  0  0  0  0
 16 27  1  6  0  0  0
 18 19  2  0  0  0  0
 18 23  1  0  0  0  0
 19 20  1  0  0  0  0
 20 21  2  0  0  0  0
 21 22  1  0  0  0  0
 21 27  1  0  0  0  0
 22 23  2  0  0  0  0
 22 25  1  0  0  0  0
 23 24  1  0  0  0  0
 25 26  2  0  0  0  0
 26 27  1  0  0  0  0
M  END
>  <CHROM.1>
140.20976203,-68.43338876,170.62380713,-68.88166836,-176.62293186,-58.96021404
-132.78884517,52.28387834,52.26028760,22.14053699,1.27841656,0.56018398,-1.18620343

>  <Name>
ligand

>  <RI>
0

>  <Rbt.Current_Directory>
/home/itssahil/PROJECTS/Mol_Feturizer/New_Systems/rnas/3GX2

>  <Rbt.Executable>
rbdock ($Id: //depot/dev/client3/rdock/2013.1/src/exe/rbdock.cxx#4 $)

>  <Rbt.Library>
libRbt.so (2013.1, Build901 2013/11/27)

>  <Rbt.Parameter_File>
/export/apps/rDock/src/rDock_2013.1_src/data/scripts/dock_solv.prm

>  <Rbt.Receptor>
prm/blind_docking_80.prm

>  <SCORE>
-13.7431

>  <SCORE.INTER>
-10.6752

>  <SCORE.INTER.CONST>
1

>  <SCORE.INTER.POLAR>
0

>  <SCORE.INTER.ROT>
7

>  <SCORE.INTER.SOLV>
12.7843

>  <SCORE.INTER.VDW>
-19.6449

>  <SCORE.INTER.norm>
-0.395377

>  <SCORE.INTRA>
-3.08441

>  <SCORE.INTRA.DIHEDRAL>
-8.02031

>  <SCORE.INTRA.DIHEDRAL.0>
13.9704

>  <SCORE.INTRA.POLAR>
0

>  <SCORE.INTRA.POLAR.0>
0

>  <SCORE.INTRA.REPUL>
0

>  <SCORE.INTRA.REPUL.0>
0

>  <SCORE.INTRA.SOLV>
2.44772

>  <SCORE.INTRA.SOLV.lig_0>
-70.9758

>  <SCORE.INTRA.VDW>
-0.298116

>  <SCORE.INTRA.VDW.0>
-2.70686

>  <SCORE.INTRA.norm>
-0.114237

>  <SCORE.RESTR>
0.0164779

>  <SCORE.RESTR.CAVITY>
0.0164779

>  <SCORE.RESTR.norm>
0.000610292

>  <SCORE.SYSTEM>
0

>  <SCORE.SYSTEM.CONST>
0

>  <SCORE.SYSTEM.DIHEDRAL>
0

>  <SCORE.SYSTEM.SOLV>
0

>  <SCORE.SYSTEM.norm>
0

>  <SCORE.heavy>
27

>  <SCORE.norm>
-0.509004

>  <RMSD>
11.533

$$$$
ligand
 OpenBabel11021811473D
libRbt.so/2013.1/901 2013/11/27
 27 29  0  0  0  0  0  0  0  0999 V2000
   46.4293   52.9361   26.8564 N   0  0  0  0  0  0  0  0  0  0  0  0
   47.5955   52.2390   26.3190 C   0  0  2  0  0  0  0  0  0  0  0  0
   48.9166   52.6337   26.9823 C   0  0  0  0  0  0  0  0  0  0  0  0
   49.1782   52.1790   28.0461 O   0  0  0  0  0  0  0  0  0  0  0  0
   47.6786   52.2180   24.7782 C   0  0  0  0  0  0  0  0  0  0  0  0
   47.2845   53.4886   23.9748 C   0  0  0  0  0  0  0  0  0  0  0  0
   48.0262   54.7931   24.3708 C   0  0  2  0  0  0  0  0  0  0  0  0
   47.5072   55.3923   25.6002 N   0  0  0  0  0  0  0  0  0  0  0  0
   48.1131   55.8039   23.1860 C   0  0  0  0  0  0  0  0  0  0  0  0
   49.0370   55.4543   21.9708 C   0  0  1  0  0  0  0  0  0  0  0  0
   50.4473   55.1698   22.2101 O   0  0  0  0  0  0  0  0  0  0  0  0
   48.5620   54.3074   21.0354 C   0  0  1  0  0  0  0  0  0  0  0  0
   47.3740   54.5229   20.2625 O   0  0  0  0  0  0  0  0  0  0  0  0
   49.8537   53.8002   20.3224 C   0  0  1  0  0  0  0  0  0  0  0  0
   50.0013   54.0721   18.9494 O   0  0  0  0  0  0  0  0  0  0  0  0
   50.9633   54.2332   21.2858 C   0  0  2  0  0  0  0  0  0  0  0  0
   49.9651   53.0998   26.1642 O   0  0  0  0  0  0  0  0  0  0  0  0
   54.9827   50.5819   21.2933 N   0  0  0  0  0  0  0  0  0  0  0  0
   54.7516   51.5918   20.3522 C   0  0  0  0  0  0  0  0  0  0  0  0
   53.6110   52.4913   20.5096 N   0  0  0  0  0  0  0  0  0  0  0  0
   52.7668   52.3497   21.5785 C   0  0  0  0  0  0  0  0  0  0  0  0
   53.0055   51.3296   22.5200 C   0  0  0  0  0  0  0  0  0  0  0  0
   54.1420   50.4330   22.3621 C   0  0  0  0  0  0  0  0  0  0  0  0
   54.3921   49.3731   23.3397 N   0  0  0  0  0  0  0  0  0  0  0  0
   51.9766   51.4050   23.5283 N   0  0  0  0  0  0  0  0  0  0  0  0
   51.1160   52.4747   23.1868 C   0  0  0  0  0  0  0  0  0  0  0  0
   51.5897   53.0733   21.9837 N   0  0  0  0  0  0  0  0  0  0  0  0
  2  1  1  6  0  0  0
  2  3  1  0  0  0  0
  2  5  1  0  0  0  0
  3  4  1  0  0  0  0
  3 17  1  0  0  0  0
  5  6  1  0  0  0  0
  7  6  1  6  0  0  0
  7  8  1  0  0  0  0
  7  9  1  0  0  0  0
 10  9  1  1  0  0  0
 10 11  1  0  0  0  0
 10 12  1  0  0  0  0
 11 16  1  0  0  0  0
 12 13  1  6  0  0  0
 12 14  1  0  0  0  0
 14 15  1  6  0  0  0
 14 16  1  0  0  0  0
 16 27  1  1  0  0  0
 18 19  2  0  0  0  0
 18 23  1  0  0  0  0
 19 20  1  0  0  0  0
 20 21  2  0  0  0  0
 21 22  1  0  0  0  0
 21 27  1  0  0  0  0
 22 23  2  0  0  0  0
 22 25  1  0  0  0  0
 23 24  1  0  0  0  0
 25 26  2  0  0  0  0
 26 27  1  0  0  0  0
M  END
>  <CHROM.1>
78.02396052,39.93012394,54.66448359,-77.57445275,-69.56487461,-55.96809980
-143.37518110,50.26681733,53.05816605,23.10127679,-2.72430505,0.55171111
-1.16521643

>  <Name>
ligand

>  <RI>
0

>  <Rbt.Current_Directory>
/home/itssahil/PROJECTS/Mol_Feturizer/New_Systems/rnas/3GX2

>  <Rbt.Executable>
rbdock ($Id: //depot/dev/client3/rdock/2013.1/src/exe/rbdock.cxx#4 $)

>  <Rbt.Library>
libRbt.so (2013.1, Build901 2013/11/27)

>  <Rbt.Parameter_File>
/export/apps/rDock/src/rDock_2013.1_src/data/scripts/dock_solv.prm

>  <Rbt.Receptor>
prm/blind_docking_80.prm

>  <SCORE>
-10.0039

>  <SCORE.INTER>
-8.37308

>  <SCORE.INTER.CONST>
1

>  <SCORE.INTER.POLAR>
0

>  <SCORE.INTER.ROT>
7

>  <SCORE.INTER.SOLV>
13.3152

>  <SCORE.INTER.VDW>
-18.2871

>  <SCORE.INTER.norm>
-0.310114

>  <SCORE.INTRA>
-1.63768

>  <SCORE.INTRA.DIHEDRAL>
-6.6318

>  <SCORE.INTRA.DIHEDRAL.0>
13.9704

>  <SCORE.INTRA.POLAR>
0

>  <SCORE.INTRA.POLAR.0>
0

>  <SCORE.INTRA.REPUL>
0

>  <SCORE.INTRA.REPUL.0>
0

>  <SCORE.INTRA.SOLV>
5.37435

>  <SCORE.INTRA.SOLV.lig_0>
-70.9758

>  <SCORE.INTRA.VDW>
-1.00895

>  <SCORE.INTRA.VDW.0>
-2.70686

>  <SCORE.INTRA.norm>
-0.0606548

>  <SCORE.RESTR>
0.00688345

>  <SCORE.RESTR.CAVITY>
0.00688345

>  <SCORE.RESTR.norm>
0.000254943

>  <SCORE.SYSTEM>
0

>  <SCORE.SYSTEM.CONST>
0

>  <SCORE.SYSTEM.DIHEDRAL>
0

>  <SCORE.SYSTEM.SOLV>
0

>  <SCORE.SYSTEM.norm>
0

>  <SCORE.heavy>
27

>  <SCORE.norm>
-0.370514

>  <RMSD>
11.586

$$$$
ligand
 OpenBabel11021811473D
libRbt.so/2013.1/901 2013/11/27
 27 29  0  0  0  0  0  0  0  0999 V2000
   56.5552   49.8341   23.3835 N   0  0  0  0  0  0  0  0  0  0  0  0
   55.5941   48.8877   23.9453 C   0  0  2  0  0  0  0  0  0  0  0  0
   55.7914   47.4460   23.4723 C   0  0  0  0  0  0  0  0  0  0  0  0
   55.8556   46.5837   24.2842 O   0  0  0  0  0  0  0  0  0  0  0  0
   54.1228   49.3476   23.8756 C   0  0  0  0  0  0  0  0  0  0  0  0
   53.6441   50.5158   24.7818 C   0  0  0  0  0  0  0  0  0  0  0  0
   52.2711   51.1371   24.4111 C   0  0  2  0  0  0  0  0  0  0  0  0
   52.3001   51.8672   23.1438 N   0  0  0  0  0  0  0  0  0  0  0  0
   51.6653   51.9689   25.5834 C   0  0  0  0  0  0  0  0  0  0  0  0
   50.3403   52.7642   25.3295 C   0  0  1  0  0  0  0  0  0  0  0  0
   50.3367   53.8425   24.3475 O   0  0  0  0  0  0  0  0  0  0  0  0
   49.0735   51.9284   24.9943 C   0  0  1  0  0  0  0  0  0  0  0  0
   48.5427   51.0775   26.0187 O   0  0  0  0  0  0  0  0  0  0  0  0
   48.1188   52.9136   24.2514 C   0  0  1  0  0  0  0  0  0  0  0  0
   46.9528   53.3338   24.9183 O   0  0  0  0  0  0  0  0  0  0  0  0
   49.0828   53.9730   23.7083 C   0  0  2  0  0  0  0  0  0  0  0  0
   55.4158   47.1148   22.1551 O   0  0  0  0  0  0  0  0  0  0  0  0
   52.4284   54.3570   19.4483 N   0  0  0  0  0  0  0  0  0  0  0  0
   52.7519   54.5096   20.8014 C   0  0  0  0  0  0  0  0  0  0  0  0
   51.7150   54.3715   21.8216 N   0  0  0  0  0  0  0  0  0  0  0  0
   50.4253   54.0910   21.4567 C   0  0  0  0  0  0  0  0  0  0  0  0
   50.1079   53.9409   20.0926 C   0  0  0  0  0  0  0  0  0  0  0  0
   51.1416   54.0794   19.0764 C   0  0  0  0  0  0  0  0  0  0  0  0
   50.8139   53.9229   17.6588 N   0  0  0  0  0  0  0  0  0  0  0  0
   48.6974   53.6551   19.9928 N   0  0  0  0  0  0  0  0  0  0  0  0
   48.1675   53.6368   21.3044 C   0  0  0  0  0  0  0  0  0  0  0  0
   49.2221   53.9025   22.2249 N   0  0  0  0  0  0  0  0  0  0  0  0
  2  1  1  6  0  0  0
  2  3  1  0  0  0  0
  2  5  1  0  0  0  0
  3  4  1  0  0  0  0
  3 17  1  0  0  0  0
  5  6  1  0  0  0  0
  7  6  1  1  0  0  0
  7  8  1  0  0  0  0
  7  9  1  0  0  0  0
 10  9  1  6  0  0  0
 10 11  1  0  0  0  0
 10 12  1  0  0  0  0
 11 16  1  0  0  0  0
 12 13  1  1  0  0  0
 12 14  1  0  0  0  0
 14 15  1  1  0  0  0
 14 16  1  0  0  0  0
 16 27  1  6  0  0  0
 18 19  2  0  0  0  0
 18 23  1  0  0  0  0
 19 20  1  0  0  0  0
 20 21  2  0  0  0  0
 21 22  1  0  0  0  0
 21 27  1  0  0  0  0
 22 23  2  0  0  0  0
 22 25  1  0  0  0  0
 23 24  1  0  0  0  0
 25 26  2  0  0  0  0
 26 27  1  0  0  0  0
M  END
>  <CHROM.1>
128.89440957,-70.45304137,165.71141208,-68.42789501,174.79965292,-63.42774267
-18.28513969,51.54903480,51.95243203,22.90764213,-0.53406275,0.57724353,-1.05418944

>  <Name>
ligand

>  <RI>
0

>  <Rbt.Current_Directory>
/home/itssahil/PROJECTS/Mol_Feturizer/New_Systems/rnas/3GX2

>  <Rbt.Executable>
rbdock ($Id: //depot/dev/client3/rdock/2013.1/src/exe/rbdock.cxx#4 $)

>  <Rbt.Library>
libRbt.so (2013.1, Build901 2013/11/27)

>  <Rbt.Parameter_File>
/export/apps/rDock/src/rDock_2013.1_src/data/scripts/dock_solv.prm

>  <Rbt.Receptor>
prm/blind_docking_100.prm

>  <SCORE>
-13.809

>  <SCORE.INTER>
-11.4426

>  <SCORE.INTER.CONST>
1

>  <SCORE.INTER.POLAR>
0

>  <SCORE.INTER.ROT>
7

>  <SCORE.INTER.SOLV>
16.9119

>  <SCORE.INTER.VDW>
-21.5323

>  <SCORE.INTER.norm>
-0.423798

>  <SCORE.INTRA>
-2.36649

>  <SCORE.INTRA.DIHEDRAL>
-7.4494

>  <SCORE.INTRA.DIHEDRAL.0>
13.9704

>  <SCORE.INTRA.POLAR>
0

>  <SCORE.INTRA.POLAR.0>
0

>  <SCORE.INTRA.REPUL>
0

>  <SCORE.INTRA.REPUL.0>
0

>  <SCORE.INTRA.SOLV>
3.53166

>  <SCORE.INTRA.SOLV.lig_0>
-70.9758

>  <SCORE.INTRA.VDW>
-0.407615

>  <SCORE.INTRA.VDW.0>
-2.70686

>  <SCORE.INTRA.norm>
-0.0876476

>  <SCORE.RESTR>
0

>  <SCORE.RESTR.CAVITY>
0

>  <SCORE.RESTR.norm>
0

>  <SCORE.SYSTEM>
0

>  <SCORE.SYSTEM.CONST>
0

>  <SCORE.SYSTEM.DIHEDRAL>
0

>  <SCORE.SYSTEM.SOLV>
0

>  <SCORE.SYSTEM.norm>
0

>  <SCORE.heavy>
27

>  <SCORE.norm>
-0.511446

>  <RMSD>
11.594

$$$$
ligand
 OpenBabel11021811473D
libRbt.so/2013.1/901 2013/11/27
 27 29  0  0  0  0  0  0  0  0999 V2000
   49.4849   53.0742   27.9999 N   0  0  0  0  0  0  0  0  0  0  0  0
   49.4454   52.6182   26.6123 C   0  0  2  0  0  0  0  0  0  0  0  0
   50.5869   51.6714   26.2359 C   0  0  0  0  0  0  0  0  0  0  0  0
   51.4717   51.5099   27.0091 O   0  0  0  0  0  0  0  0  0  0  0  0
   49.2250   53.7378   25.5735 C   0  0  0  0  0  0  0  0  0  0  0  0
   49.1187   53.3716   24.0670 C   0  0  0  0  0  0  0  0  0  0  0  0
   48.3917   54.4095   23.1710 C   0  0  2  0  0  0  0  0  0  0  0  0
   47.6889   53.7959   22.0443 N   0  0  0  0  0  0  0  0  0  0  0  0
   49.3312   55.5790   22.7434 C   0  0  0  0  0  0  0  0  0  0  0  0
   50.6564   55.2342   21.9836 C   0  0  1  0  0  0  0  0  0  0  0  0
   51.8505   54.9039   22.7531 O   0  0  0  0  0  0  0  0  0  0  0  0
   50.5743   54.1254   20.8975 C   0  0  1  0  0  0  0  0  0  0  0  0
   49.7953   54.3940   19.7244 O   0  0  0  0  0  0  0  0  0  0  0  0
   52.0347   53.6000   20.7388 C   0  0  1  0  0  0  0  0  0  0  0  0
   52.7205   53.9023   19.5475 O   0  0  0  0  0  0  0  0  0  0  0  0
   52.6765   53.9767   22.0778 C   0  0  2  0  0  0  0  0  0  0  0  0
   50.3445   50.6824   25.2619 O   0  0  0  0  0  0  0  0  0  0  0  0
   54.6382   48.9171   22.2754 N   0  0  0  0  0  0  0  0  0  0  0  0
   54.5630   49.7581   21.1592 C   0  0  0  0  0  0  0  0  0  0  0  0
   53.9996   51.0998   21.2908 N   0  0  0  0  0  0  0  0  0  0  0  0
   53.5456   51.5381   22.5061 C   0  0  0  0  0  0  0  0  0  0  0  0
   53.6232   50.6846   23.6240 C   0  0  0  0  0  0  0  0  0  0  0  0
   54.1841   49.3473   23.4919 C   0  0  0  0  0  0  0  0  0  0  0  0
   54.2665   48.4596   24.6523 N   0  0  0  0  0  0  0  0  0  0  0  0
   53.0806   51.3889   24.7600 N   0  0  0  0  0  0  0  0  0  0  0  0
   52.6736   52.6700   24.3188 C   0  0  0  0  0  0  0  0  0  0  0  0
   52.9550   52.7822   22.9266 N   0  0  0  0  0  0  0  0  0  0  0  0
  2  1  1  1  0  0  0
  2  3  1  0  0  0  0
  2  5  1  0  0  0  0
  3  4  1  0  0  0  0
  3 17  1  0  0  0  0
  5  6  1  0  0  0  0
  7  6  1  6  0  0  0
  7  8  1  0  0  0  0
  7  9  1  0  0  0  0
 10  9  1  1  0  0  0
 10 11  1  0  0  0  0
 10 12  1  0  0  0  0
 11 16  1  0  0  0  0
 12 13  1  6  0  0  0
 12 14  1  0  0  0  0
 14 15  1  6  0  0  0
 14 16  1  0  0  0  0
 16 27  1  1  0  0  0
 18 19  2  0  0  0  0
 18 23  1  0  0  0  0
 19 20  1  0  0  0  0
 20 21  2  0  0  0  0
 21 22  1  0  0  0  0
 21 27  1  0  0  0  0
 22 23  2  0  0  0  0
 22 25  1  0  0  0  0
 23 24  1  0  0  0  0
 25 26  2  0  0  0  0
 26 27  1  0  0  0  0
M  END
>  <CHROM.1>
-8.68799270,-178.04621288,157.99810373,-148.75026936,56.93463199,-85.98134190
167.94914814,51.54079470,52.52975646,23.31257615,2.81102769,0.69263671,-1.09867785

>  <Name>
ligand

>  <RI>
0

>  <Rbt.Current_Directory>
/home/itssahil/PROJECTS/Mol_Feturizer/New_Systems/rnas/3GX2

>  <Rbt.Executable>
rbdock ($Id: //depot/dev/client3/rdock/2013.1/src/exe/rbdock.cxx#4 $)

>  <Rbt.Library>
libRbt.so (2013.1, Build901 2013/11/27)

>  <Rbt.Parameter_File>
/export/apps/rDock/src/rDock_2013.1_src/data/scripts/dock_solv.prm

>  <Rbt.Receptor>
prm/blind_docking_80.prm

>  <SCORE>
-5.5521

>  <SCORE.INTER>
-4.52892

>  <SCORE.INTER.CONST>
1

>  <SCORE.INTER.POLAR>
0

>  <SCORE.INTER.ROT>
7

>  <SCORE.INTER.SOLV>
20.2581

>  <SCORE.INTER.VDW>
-18.0386

>  <SCORE.INTER.norm>
-0.167738

>  <SCORE.INTRA>
-1.02318

>  <SCORE.INTRA.DIHEDRAL>
-2.5231

>  <SCORE.INTRA.DIHEDRAL.0>
13.9704

>  <SCORE.INTRA.POLAR>
0

>  <SCORE.INTRA.POLAR.0>
0

>  <SCORE.INTRA.REPUL>
0

>  <SCORE.INTRA.REPUL.0>
0

>  <SCORE.INTRA.SOLV>
2.25544

>  <SCORE.INTRA.SOLV.lig_0>
-70.9758

>  <SCORE.INTRA.VDW>
-0.889349

>  <SCORE.INTRA.VDW.0>
-2.70686

>  <SCORE.INTRA.norm>
-0.0378956

>  <SCORE.RESTR>
0

>  <SCORE.RESTR.CAVITY>
0

>  <SCORE.RESTR.norm>
0

>  <SCORE.SYSTEM>
0

>  <SCORE.SYSTEM.CONST>
0

>  <SCORE.SYSTEM.DIHEDRAL>
0

>  <SCORE.SYSTEM.SOLV>
0

>  <SCORE.SYSTEM.norm>
0

>  <SCORE.heavy>
27

>  <SCORE.norm>
-0.205634

>  <RMSD>
11.703

$$$$
ligand
 OpenBabel11021811473D
libRbt.so/2013.1/901 2013/11/27
 27 29  0  0  0  0  0  0  0  0999 V2000
   47.9024   54.6879   24.4392 N   0  0  0  0  0  0  0  0  0  0  0  0
   49.2548   54.8029   23.8980 C   0  0  2  0  0  0  0  0  0  0  0  0
   49.3279   54.6790   22.3747 C   0  0  0  0  0  0  0  0  0  0  0  0
   49.8487   55.5473   21.7568 O   0  0  0  0  0  0  0  0  0  0  0  0
   50.3126   53.9447   24.6229 C   0  0  0  0  0  0  0  0  0  0  0  0
   50.1799   52.3964   24.6091 C   0  0  0  0  0  0  0  0  0  0  0  0
   50.9991   51.6403   25.6888 C   0  0  2  0  0  0  0  0  0  0  0  0
   50.7388   52.1252   27.0442 N   0  0  0  0  0  0  0  0  0  0  0  0
   52.5185   51.5807   25.3408 C   0  0  0  0  0  0  0  0  0  0  0  0
   52.9704   50.7278   24.1077 C   0  0  1  0  0  0  0  0  0  0  0  0
   52.6302   51.1850   22.7652 O   0  0  0  0  0  0  0  0  0  0  0  0
   54.4784   50.3607   24.0232 C   0  0  1  0  0  0  0  0  0  0  0  0
   55.0086   49.4760   25.0189 O   0  0  0  0  0  0  0  0  0  0  0  0
   54.7410   50.0565   22.5157 C   0  0  1  0  0  0  0  0  0  0  0  0
   54.9939   48.7226   22.1445 O   0  0  0  0  0  0  0  0  0  0  0  0
   53.6106   50.8175   21.8157 C   0  0  2  0  0  0  0  0  0  0  0  0
   49.2359   53.3953   21.8009 O   0  0  0  0  0  0  0  0  0  0  0  0
   52.3094   55.2034   18.8904 N   0  0  0  0  0  0  0  0  0  0  0  0
   51.4359   54.2684   19.4574 C   0  0  0  0  0  0  0  0  0  0  0  0
   51.9662   53.1398   20.2191 N   0  0  0  0  0  0  0  0  0  0  0  0
   53.3182   52.9953   20.3813 C   0  0  0  0  0  0  0  0  0  0  0  0
   54.1904   53.9398   19.8058 C   0  0  0  0  0  0  0  0  0  0  0  0
   53.6612   55.0639   19.0463 C   0  0  0  0  0  0  0  0  0  0  0  0
   54.5657   56.0467   18.4484 N   0  0  0  0  0  0  0  0  0  0  0  0
   55.5420   53.5506   20.1262 N   0  0  0  0  0  0  0  0  0  0  0  0
   55.4782   52.3650   20.8956 C   0  0  0  0  0  0  0  0  0  0  0  0
   54.1099   52.0064   21.0660 N   0  0  0  0  0  0  0  0  0  0  0  0
  2  1  1  1  0  0  0
  2  3  1  0  0  0  0
  2  5  1  0  0  0  0
  3  4  1  0  0  0  0
  3 17  1  0  0  0  0
  5  6  1  0  0  0  0
  7  6  1  6  0  0  0
  7  8  1  0  0  0  0
  7  9  1  0  0  0  0
 10  9  1  1  0  0  0
 10 11  1  0  0  0  0
 10 12  1  0  0  0  0
 11 16  1  0  0  0  0
 12 13  1  1  0  0  0
 12 14  1  0  0  0  0
 14 15  1  1  0  0  0
 14 16  1  0  0  0  0
 16 27  1  1  0  0  0
 18 19  2  0  0  0  0
 18 23  1  0  0  0  0
 19 20  1  0  0  0  0
 20 21  2  0  0  0  0
 21 22  1  0  0  0  0
 21 27  1  0  0  0  0
 22 23  2  0  0  0  0
 22 25  1  0  0  0  0
 23 24  1  0  0  0  0
 25 26  2  0  0  0  0
 26 27  1  0  0  0  0
M  END
>  <CHROM.1>
125.17749909,63.03816891,-162.03469979,53.61422098,-67.56724814,69.69850936
-51.90460432,52.38926964,52.72895162,22.36060602,2.17744275,-0.57525227,2.22522387

>  <Name>
ligand

>  <RI>
0

>  <Rbt.Current_Directory>
/home/itssahil/PROJECTS/Mol_Feturizer/New_Systems/rnas/3GX2

>  <Rbt.Executable>
rbdock ($Id: //depot/dev/client3/rdock/2013.1/src/exe/rbdock.cxx#4 $)

>  <Rbt.Library>
libRbt.so (2013.1, Build901 2013/11/27)

>  <Rbt.Parameter_File>
/export/apps/rDock/src/rDock_2013.1_src/data/scripts/dock_solv.prm

>  <Rbt.Receptor>
prm/blind_docking_100.prm

>  <SCORE>
-12.5892

>  <SCORE.INTER>
-9.13153

>  <SCORE.INTER.CONST>
1

>  <SCORE.INTER.POLAR>
0

>  <SCORE.INTER.ROT>
7

>  <SCORE.INTER.SOLV>
13.3768

>  <SCORE.INTER.VDW>
-18.8133

>  <SCORE.INTER.norm>
-0.338205

>  <SCORE.INTRA>
-3.46008

>  <SCORE.INTRA.DIHEDRAL>
-7.11005

>  <SCORE.INTRA.DIHEDRAL.0>
13.9704

>  <SCORE.INTRA.POLAR>
0

>  <SCORE.INTRA.POLAR.0>
0

>  <SCORE.INTRA.REPUL>
0

>  <SCORE.INTRA.REPUL.0>
0

>  <SCORE.INTRA.SOLV>
0.709947

>  <SCORE.INTRA.SOLV.lig_0>
-70.9758

>  <SCORE.INTRA.VDW>
-0.260027

>  <SCORE.INTRA.VDW.0>
-2.70686

>  <SCORE.INTRA.norm>
-0.128151

>  <SCORE.RESTR>
0.00244228

>  <SCORE.RESTR.CAVITY>
0.00244228

>  <SCORE.RESTR.norm>
9.04549e-05

>  <SCORE.SYSTEM>
0

>  <SCORE.SYSTEM.CONST>
0

>  <SCORE.SYSTEM.DIHEDRAL>
0

>  <SCORE.SYSTEM.SOLV>
0

>  <SCORE.SYSTEM.norm>
0

>  <SCORE.heavy>
27

>  <SCORE.norm>
-0.466265

>  <RMSD>
11.734

$$$$
ligand
 OpenBabel11021811473D
libRbt.so/2013.1/901 2013/11/27
 27 29  0  0  0  0  0  0  0  0999 V2000
   48.3433   51.2062   25.0013 N   0  0  0  0  0  0  0  0  0  0  0  0
   49.2645   51.9410   25.8653 C   0  0  2  0  0  0  0  0  0  0  0  0
   48.8714   51.9321   27.3441 C   0  0  0  0  0  0  0  0  0  0  0  0
   49.7304   51.9327   28.1619 O   0  0  0  0  0  0  0  0  0  0  0  0
   49.6451   53.3457   25.3524 C   0  0  0  0  0  0  0  0  0  0  0  0
   50.3649   53.4894   23.9826 C   0  0  0  0  0  0  0  0  0  0  0  0
   50.6179   54.9438   23.5039 C   0  0  2  0  0  0  0  0  0  0  0  0
   49.3905   55.7341   23.4103 N   0  0  0  0  0  0  0  0  0  0  0  0
   51.4797   54.9946   22.2046 C   0  0  0  0  0  0  0  0  0  0  0  0
   50.9848   54.2027   20.9475 C   0  0  1  0  0  0  0  0  0  0  0  0
   49.7125   53.4925   21.0114 O   0  0  0  0  0  0  0  0  0  0  0  0
   50.9278   54.9828   19.6044 C   0  0  1  0  0  0  0  0  0  0  0  0
   52.1674   55.4163   19.0292 O   0  0  0  0  0  0  0  0  0  0  0  0
   49.9098   54.1990   18.7194 C   0  0  1  0  0  0  0  0  0  0  0  0
   50.4073   53.4862   17.6125 O   0  0  0  0  0  0  0  0  0  0  0  0
   49.0620   53.4564   19.7570 C   0  0  2  0  0  0  0  0  0  0  0  0
   47.5910   52.4001   27.7006 O   0  0  0  0  0  0  0  0  0  0  0  0
   45.6970   57.5180   18.4660 N   0  0  0  0  0  0  0  0  0  0  0  0
   47.0534   57.4005   18.1418 C   0  0  0  0  0  0  0  0  0  0  0  0
   47.8106   56.2288   18.5763 N   0  0  0  0  0  0  0  0  0  0  0  0
   47.1949   55.2426   19.2998 C   0  0  0  0  0  0  0  0  0  0  0  0
   45.8299   55.3696   19.6234 C   0  0  0  0  0  0  0  0  0  0  0  0
   45.0761   56.5379   19.1907 C   0  0  0  0  0  0  0  0  0  0  0  0
   43.6578   56.6712   19.5252 N   0  0  0  0  0  0  0  0  0  0  0  0
   45.4422   54.2053   20.3818 N   0  0  0  0  0  0  0  0  0  0  0  0
   46.5823   53.3783   20.5150 C   0  0  0  0  0  0  0  0  0  0  0  0
   47.6771   54.0024   19.8501 N   0  0  0  0  0  0  0  0  0  0  0  0
  2  1  1  6  0  0  0
  2  3  1  0  0  0  0
  2  5  1  0  0  0  0
  3  4  1  0  0  0  0
  3 17  1  0  0  0  0
  5  6  1  0  0  0  0
  7  6  1  6  0  0  0
  7  8  1  0  0  0  0
  7  9  1  0  0  0  0
 10  9  1  1  0  0  0
 10 11  1  0  0  0  0
 10 12  1  0  0  0  0
 11 16  1  0  0  0  0
 12 13  1  6  0  0  0
 12 14  1  0  0  0  0
 14 15  1  6  0  0  0
 14 16  1  0  0  0  0
 16 27  1  1  0  0  0
 18 19  2  0  0  0  0
 18 23  1  0  0  0  0
 19 20  1  0  0  0  0
 20 21  2  0  0  0  0
 21 22  1  0  0  0  0
 21 27  1  0  0  0  0
 22 23  2  0  0  0  0
 22 25  1  0  0  0  0
 23 24  1  0  0  0  0
 25 26  2  0  0  0  0
 26 27  1  0  0  0  0
M  END
>  <CHROM.1>
146.64296397,-60.69469266,175.85767631,-57.05893609,55.73189488,2.56315782
109.87023947,48.60676018,54.31232804,21.66233948,1.33417248,-0.17942812,1.93748148

>  <Name>
ligand

>  <RI>
0

>  <Rbt.Current_Directory>
/home/itssahil/PROJECTS/Mol_Feturizer/New_Systems/rnas/3GX2

>  <Rbt.Executable>
rbdock ($Id: //depot/dev/client3/rdock/2013.1/src/exe/rbdock.cxx#4 $)

>  <Rbt.Library>
libRbt.so (2013.1, Build901 2013/11/27)

>  <Rbt.Parameter_File>
/export/apps/rDock/src/rDock_2013.1_src/data/scripts/dock_solv.prm

>  <Rbt.Receptor>
prm/blind_docking_80.prm

>  <SCORE>
-4.87675

>  <SCORE.INTER>
-4.59428

>  <SCORE.INTER.CONST>
1

>  <SCORE.INTER.POLAR>
0

>  <SCORE.INTER.ROT>
7

>  <SCORE.INTER.SOLV>
26.7074

>  <SCORE.INTER.VDW>
-20.232

>  <SCORE.INTER.norm>
-0.170158

>  <SCORE.INTRA>
-0.567979

>  <SCORE.INTRA.DIHEDRAL>
-3.35442

>  <SCORE.INTRA.DIHEDRAL.0>
13.9704

>  <SCORE.INTRA.POLAR>
0

>  <SCORE.INTRA.POLAR.0>
0

>  <SCORE.INTRA.REPUL>
0

>  <SCORE.INTRA.REPUL.0>
0

>  <SCORE.INTRA.SOLV>
1.67746

>  <SCORE.INTRA.SOLV.lig_0>
-70.9758

>  <SCORE.INTRA.VDW>
0.270504

>  <SCORE.INTRA.VDW.0>
-2.70686

>  <SCORE.INTRA.norm>
-0.0210362

>  <SCORE.RESTR>
0.285507

>  <SCORE.RESTR.CAVITY>
0.285507

>  <SCORE.RESTR.norm>
0.0105743

>  <SCORE.SYSTEM>
0

>  <SCORE.SYSTEM.CONST>
0

>  <SCORE.SYSTEM.DIHEDRAL>
0

>  <SCORE.SYSTEM.SOLV>
0

>  <SCORE.SYSTEM.norm>
0

>  <SCORE.heavy>
27

>  <SCORE.norm>
-0.18062

>  <RMSD>
11.769

$$$$
ligand
 OpenBabel11021811473D
libRbt.so/2013.1/901 2013/11/27
 27 29  0  0  0  0  0  0  0  0999 V2000
   52.4249   56.4224   17.5079 N   0  0  0  0  0  0  0  0  0  0  0  0
   52.4998   55.5436   16.3430 C   0  0  2  0  0  0  0  0  0  0  0  0
   53.0170   56.2309   15.0775 C   0  0  0  0  0  0  0  0  0  0  0  0
   53.6975   55.6106   14.3298 O   0  0  0  0  0  0  0  0  0  0  0  0
   51.2338   54.6973   16.0934 C   0  0  0  0  0  0  0  0  0  0  0  0
   51.0067   53.4009   16.9199 C   0  0  0  0  0  0  0  0  0  0  0  0
   50.9589   53.5837   18.4602 C   0  0  2  0  0  0  0  0  0  0  0  0
   49.9958   54.6002   18.8834 N   0  0  0  0  0  0  0  0  0  0  0  0
   52.3783   53.7919   19.0729 C   0  0  0  0  0  0  0  0  0  0  0  0
   52.5151   53.8799   20.6304 C   0  0  1  0  0  0  0  0  0  0  0  0
   51.6193   54.7592   21.3731 O   0  0  0  0  0  0  0  0  0  0  0  0
   52.4818   52.5383   21.4146 C   0  0  1  0  0  0  0  0  0  0  0  0
   53.5679   51.6229   21.2209 O   0  0  0  0  0  0  0  0  0  0  0  0
   52.0596   52.9239   22.8662 C   0  0  1  0  0  0  0  0  0  0  0  0
   53.0255   52.8227   23.8848 O   0  0  0  0  0  0  0  0  0  0  0  0
   51.3348   54.2583   22.6639 C   0  0  2  0  0  0  0  0  0  0  0  0
   52.3184   57.3537   14.5907 O   0  0  0  0  0  0  0  0  0  0  0  0
   47.3452   51.7364   25.3490 N   0  0  0  0  0  0  0  0  0  0  0  0
   48.7218   51.5091   25.4591 C   0  0  0  0  0  0  0  0  0  0  0  0
   49.6587   52.2874   24.6520 N   0  0  0  0  0  0  0  0  0  0  0  0
   49.1925   53.2417   23.7877 C   0  0  0  0  0  0  0  0  0  0  0  0
   47.8055   53.4628   23.6815 C   0  0  0  0  0  0  0  0  0  0  0  0
   46.8723   52.6863   24.4857 C   0  0  0  0  0  0  0  0  0  0  0  0
   45.4310   52.9152   24.3775 N   0  0  0  0  0  0  0  0  0  0  0  0
   47.5945   54.5082   22.7101 N   0  0  0  0  0  0  0  0  0  0  0  0
   48.8624   54.9130   22.2303 C   0  0  0  0  0  0  0  0  0  0  0  0
   49.8646   54.1419   22.8869 N   0  0  0  0  0  0  0  0  0  0  0  0
  2  1  1  1  0  0  0
  2  3  1  0  0  0  0
  2  5  1  0  0  0  0
  3  4  1  0  0  0  0
  3 17  1  0  0  0  0
  5  6  1  0  0  0  0
  7  6  1  6  0  0  0
  7  8  1  0  0  0  0
  7  9  1  0  0  0  0
 10  9  1  6  0  0  0
 10 11  1  0  0  0  0
 10 12  1  0  0  0  0
 11 16  1  0  0  0  0
 12 13  1  1  0  0  0
 12 14  1  0  0  0  0
 14 15  1  1  0  0  0
 14 16  1  0  0  0  0
 16 27  1  6  0  0  0
 18 19  2  0  0  0  0
 18 23  1  0  0  0  0
 19 20  1  0  0  0  0
 20 21  2  0  0  0  0
 21 22  1  0  0  0  0
 21 27  1  0  0  0  0
 22 23  2  0  0  0  0
 22 25  1  0  0  0  0
 23 24  1  0  0  0  0
 25 26  2  0  0  0  0
 26 27  1  0  0  0  0
M  END
>  <CHROM.1>
144.35773556,-80.21146214,58.22259857,53.07351692,-175.29061850,-48.28032166
153.95086667,50.74252149,53.93510771,20.66642781,1.13042489,0.21540523,-1.14635731

>  <Name>
ligand

>  <RI>
0

>  <Rbt.Current_Directory>
/home/itssahil/PROJECTS/Mol_Feturizer/New_Systems/rnas/3GX2

>  <Rbt.Executable>
rbdock ($Id: //depot/dev/client3/rdock/2013.1/src/exe/rbdock.cxx#4 $)

>  <Rbt.Library>
libRbt.so (2013.1, Build901 2013/11/27)

>  <Rbt.Parameter_File>
/export/apps/rDock/src/rDock_2013.1_src/data/scripts/dock_solv.prm

>  <Rbt.Receptor>
prm/blind_docking_80.prm

>  <SCORE>
-8.54874

>  <SCORE.INTER>
-8.14729

>  <SCORE.INTER.CONST>
1

>  <SCORE.INTER.POLAR>
0

>  <SCORE.INTER.ROT>
7

>  <SCORE.INTER.SOLV>
15.8114

>  <SCORE.INTER.VDW>
-18.9687

>  <SCORE.INTER.norm>
-0.301752

>  <SCORE.INTRA>
-0.401446

>  <SCORE.INTRA.DIHEDRAL>
-6.82087

>  <SCORE.INTRA.DIHEDRAL.0>
13.9704

>  <SCORE.INTRA.POLAR>
0

>  <SCORE.INTRA.POLAR.0>
0

>  <SCORE.INTRA.REPUL>
0

>  <SCORE.INTRA.REPUL.0>
0

>  <SCORE.INTRA.SOLV>
6.26996

>  <SCORE.INTRA.SOLV.lig_0>
-70.9758

>  <SCORE.INTRA.VDW>
-0.12599

>  <SCORE.INTRA.VDW.0>
-2.70686

>  <SCORE.INTRA.norm>
-0.0148684

>  <SCORE.RESTR>
0

>  <SCORE.RESTR.CAVITY>
0

>  <SCORE.RESTR.norm>
0

>  <SCORE.SYSTEM>
0

>  <SCORE.SYSTEM.CONST>
0

>  <SCORE.SYSTEM.DIHEDRAL>
0

>  <SCORE.SYSTEM.SOLV>
0

>  <SCORE.SYSTEM.norm>
0

>  <SCORE.heavy>
27

>  <SCORE.norm>
-0.31662

>  <RMSD>
11.838

$$$$
ligand
 OpenBabel11021811473D
libRbt.so/2013.1/901 2013/11/27
 27 29  0  0  0  0  0  0  0  0999 V2000
   53.1502   53.8743   16.8070 N   0  0  0  0  0  0  0  0  0  0  0  0
   52.0222   53.4498   17.6332 C   0  0  2  0  0  0  0  0  0  0  0  0
   50.7725   53.0742   16.8343 C   0  0  0  0  0  0  0  0  0  0  0  0
   50.0277   52.2694   17.2865 O   0  0  0  0  0  0  0  0  0  0  0  0
   51.7162   54.3763   18.8286 C   0  0  0  0  0  0  0  0  0  0  0  0
   50.7249   53.9025   19.9278 C   0  0  0  0  0  0  0  0  0  0  0  0
   50.4620   54.9108   21.0778 C   0  0  2  0  0  0  0  0  0  0  0  0
   51.6724   55.2488   21.8266 N   0  0  0  0  0  0  0  0  0  0  0  0
   49.2800   54.4652   21.9930 C   0  0  0  0  0  0  0  0  0  0  0  0
   49.6078   53.6906   23.3139 C   0  0  1  0  0  0  0  0  0  0  0  0
   50.3654   52.4467   23.2380 O   0  0  0  0  0  0  0  0  0  0  0  0
   50.2986   54.4984   24.4480 C   0  0  1  0  0  0  0  0  0  0  0  0
   49.5498   55.5489   25.0731 O   0  0  0  0  0  0  0  0  0  0  0  0
   51.0030   53.4296   25.3401 C   0  0  1  0  0  0  0  0  0  0  0  0
   50.4794   53.1912   26.6245 O   0  0  0  0  0  0  0  0  0  0  0  0
   51.1743   52.2482   24.3800 C   0  0  2  0  0  0  0  0  0  0  0  0
   50.2885   53.9880   15.8769 O   0  0  0  0  0  0  0  0  0  0  0  0
   55.3014   48.7302   24.1015 N   0  0  0  0  0  0  0  0  0  0  0  0
   54.0050   48.4864   24.5691 C   0  0  0  0  0  0  0  0  0  0  0  0
   53.0143   49.5604   24.5719 N   0  0  0  0  0  0  0  0  0  0  0  0
   53.3511   50.8069   24.1157 C   0  0  0  0  0  0  0  0  0  0  0  0
   54.6585   51.0442   23.6485 C   0  0  0  0  0  0  0  0  0  0  0  0
   55.6456   49.9736   23.6467 C   0  0  0  0  0  0  0  0  0  0  0  0
   57.0041   50.2179   23.1608 N   0  0  0  0  0  0  0  0  0  0  0  0
   54.7397   52.4237   23.2347 N   0  0  0  0  0  0  0  0  0  0  0  0
   53.4744   53.0159   23.4581 C   0  0  0  0  0  0  0  0  0  0  0  0
   52.6005   52.0304   24.0014 N   0  0  0  0  0  0  0  0  0  0  0  0
  2  1  1  6  0  0  0
  2  3  1  0  0  0  0
  2  5  1  0  0  0  0
  3  4  1  0  0  0  0
  3 17  1  0  0  0  0
  5  6  1  0  0  0  0
  7  6  1  6  0  0  0
  7  8  1  0  0  0  0
  7  9  1  0  0  0  0
 10  9  1  6  0  0  0
 10 11  1  0  0  0  0
 10 12  1  0  0  0  0
 11 16  1  0  0  0  0
 12 13  1  1  0  0  0
 12 14  1  0  0  0  0
 14 15  1  1  0  0  0
 14 16  1  0  0  0  0
 16 27  1  6  0  0  0
 18 19  2  0  0  0  0
 18 23  1  0  0  0  0
 19 20  1  0  0  0  0
 20 21  2  0  0  0  0
 21 22  1  0  0  0  0
 21 27  1  0  0  0  0
 22 23  2  0  0  0  0
 22 25  1  0  0  0  0
 23 24  1  0  0  0  0
 25 26  2  0  0  0  0
 26 27  1  0  0  0  0
M  END
>  <CHROM.1>
151.18258400,-168.59374033,-179.02758072,-60.77606741,96.20341841,-57.44824111
-110.73162290,52.00322754,52.68372593,22.13064482,-2.04031113,-0.70283054
1.65866471

>  <Name>
ligand

>  <RI>
0

>  <Rbt.Current_Directory>
/home/itssahil/PROJECTS/Mol_Feturizer/New_Systems/rnas/3GX2

>  <Rbt.Executable>
rbdock ($Id: //depot/dev/client3/rdock/2013.1/src/exe/rbdock.cxx#4 $)

>  <Rbt.Library>
libRbt.so (2013.1, Build901 2013/11/27)

>  <Rbt.Parameter_File>
/export/apps/rDock/src/rDock_2013.1_src/data/scripts/dock_solv.prm

>  <Rbt.Receptor>
prm/blind_docking_80.prm

>  <SCORE>
-6.87756

>  <SCORE.INTER>
-5.89802

>  <SCORE.INTER.CONST>
1

>  <SCORE.INTER.POLAR>
0

>  <SCORE.INTER.ROT>
7

>  <SCORE.INTER.SOLV>
20.4456

>  <SCORE.INTER.VDW>
-19.0139

>  <SCORE.INTER.norm>
-0.218445

>  <SCORE.INTRA>
-1.10055

>  <SCORE.INTRA.DIHEDRAL>
-5.01476

>  <SCORE.INTRA.DIHEDRAL.0>
13.9704

>  <SCORE.INTRA.POLAR>
0

>  <SCORE.INTRA.POLAR.0>
0

>  <SCORE.INTRA.REPUL>
0

>  <SCORE.INTRA.REPUL.0>
0

>  <SCORE.INTRA.SOLV>
3.36654

>  <SCORE.INTRA.SOLV.lig_0>
-70.9758

>  <SCORE.INTRA.VDW>
-0.276439

>  <SCORE.INTRA.VDW.0>
-2.70686

>  <SCORE.INTRA.norm>
-0.0407611

>  <SCORE.RESTR>
0.121007

>  <SCORE.RESTR.CAVITY>
0.121007

>  <SCORE.RESTR.norm>
0.00448174

>  <SCORE.SYSTEM>
0

>  <SCORE.SYSTEM.CONST>
0

>  <SCORE.SYSTEM.DIHEDRAL>
0

>  <SCORE.SYSTEM.SOLV>
0

>  <SCORE.SYSTEM.norm>
0

>  <SCORE.heavy>
27

>  <SCORE.norm>
-0.254724

>  <RMSD>
11.868

$$$$
ligand
 OpenBabel11021811473D
libRbt.so/2013.1/901 2013/11/27
 27 29  0  0  0  0  0  0  0  0999 V2000
   53.7344   56.3007   16.5226 N   0  0  0  0  0  0  0  0  0  0  0  0
   52.7407   56.4241   15.4585 C   0  0  2  0  0  0  0  0  0  0  0  0
   52.7427   57.7856   14.7602 C   0  0  0  0  0  0  0  0  0  0  0  0
   51.8682   58.0369   13.9993 O   0  0  0  0  0  0  0  0  0  0  0  0
   51.3244   55.9471   15.8428 C   0  0  0  0  0  0  0  0  0  0  0  0
   51.0993   54.4600   16.2339 C   0  0  0  0  0  0  0  0  0  0  0  0
   51.6620   54.0344   17.6162 C   0  0  2  0  0  0  0  0  0  0  0  0
   51.9189   52.5972   17.7083 N   0  0  0  0  0  0  0  0  0  0  0  0
   50.7996   54.5793   18.7962 C   0  0  0  0  0  0  0  0  0  0  0  0
   51.4453   54.6572   20.2208 C   0  0  1  0  0  0  0  0  0  0  0  0
   50.7150   55.3188   21.2960 O   0  0  0  0  0  0  0  0  0  0  0  0
   51.9299   53.3190   20.8456 C   0  0  1  0  0  0  0  0  0  0  0  0
   53.0310   52.6480   20.2192 O   0  0  0  0  0  0  0  0  0  0  0  0
   51.9699   53.5771   22.3837 C   0  0  1  0  0  0  0  0  0  0  0  0
   53.2284   53.6507   23.0095 O   0  0  0  0  0  0  0  0  0  0  0  0
   50.9887   54.7408   22.5565 C   0  0  2  0  0  0  0  0  0  0  0  0
   53.4486   58.8467   15.3614 O   0  0  0  0  0  0  0  0  0  0  0  0
   48.5709   51.0581   25.7313 N   0  0  0  0  0  0  0  0  0  0  0  0
   49.8986   51.0602   25.2887 C   0  0  0  0  0  0  0  0  0  0  0  0
   50.3824   52.1403   24.4317 N   0  0  0  0  0  0  0  0  0  0  0  0
   49.5389   53.1534   24.0612 C   0  0  0  0  0  0  0  0  0  0  0  0
   48.2036   53.1427   24.5095 C   0  0  0  0  0  0  0  0  0  0  0  0
   47.7220   52.0655   25.3629 C   0  0  0  0  0  0  0  0  0  0  0  0
   46.3354   52.0532   25.8304 N   0  0  0  0  0  0  0  0  0  0  0  0
   47.5458   54.3105   23.9762 N   0  0  0  0  0  0  0  0  0  0  0  0
   48.4920   55.0225   23.2022 C   0  0  0  0  0  0  0  0  0  0  0  0
   49.7327   54.3232   23.2441 N   0  0  0  0  0  0  0  0  0  0  0  0
  2  1  1  1  0  0  0
  2  3  1  0  0  0  0
  2  5  1  0  0  0  0
  3  4  1  0  0  0  0
  3 17  1  0  0  0  0
  5  6  1  0  0  0  0
  7  6  1  6  0  0  0
  7  8  1  0  0  0  0
  7  9  1  0  0  0  0
 10  9  1  6  0  0  0
 10 11  1  0  0  0  0
 10 12  1  0  0  0  0
 11 16  1  0  0  0  0
 12 13  1  6  0  0  0
 12 14  1  0  0  0  0
 14 15  1  6  0  0  0
 14 16  1  0  0  0  0
 16 27  1  6  0  0  0
 18 19  2  0  0  0  0
 18 23  1  0  0  0  0
 19 20  1  0  0  0  0
 20 21  2  0  0  0  0
 21 22  1  0  0  0  0
 21 27  1  0  0  0  0
 22 23  2  0  0  0  0
 22 25  1  0  0  0  0
 23 24  1  0  0  0  0
 25 26  2  0  0  0  0
 26 27  1  0  0  0  0
M  END
>  <CHROM.1>
-170.87843020,-62.10521486,72.22537923,-156.59827913,-160.26850846,172.29513905
142.95445671,50.85808320,54.33186155,20.55921882,-1.17562121,-0.47165347
2.18203171

>  <Name>
ligand

>  <RI>
0

>  <Rbt.Current_Directory>
/home/itssahil/PROJECTS/Mol_Feturizer/New_Systems/rnas/3GX2

>  <Rbt.Executable>
rbdock ($Id: //depot/dev/client3/rdock/2013.1/src/exe/rbdock.cxx#4 $)

>  <Rbt.Library>
libRbt.so (2013.1, Build901 2013/11/27)

>  <Rbt.Parameter_File>
/export/apps/rDock/src/rDock_2013.1_src/data/scripts/dock_solv.prm

>  <Rbt.Receptor>
prm/blind_docking_100.prm

>  <SCORE>
-6.91186

>  <SCORE.INTER>
-6.62607

>  <SCORE.INTER.CONST>
1

>  <SCORE.INTER.POLAR>
0

>  <SCORE.INTER.ROT>
7

>  <SCORE.INTER.SOLV>
18.453

>  <SCORE.INTER.VDW>
-18.8351

>  <SCORE.INTER.norm>
-0.24541

>  <SCORE.INTRA>
-0.285785

>  <SCORE.INTRA.DIHEDRAL>
-5.63439

>  <SCORE.INTRA.DIHEDRAL.0>
13.9704

>  <SCORE.INTRA.POLAR>
0

>  <SCORE.INTRA.POLAR.0>
0

>  <SCORE.INTRA.REPUL>
0

>  <SCORE.INTRA.REPUL.0>
0

>  <SCORE.INTRA.SOLV>
3.65243

>  <SCORE.INTRA.SOLV.lig_0>
-70.9758

>  <SCORE.INTRA.VDW>
0.705194

>  <SCORE.INTRA.VDW.0>
-2.70686

>  <SCORE.INTRA.norm>
-0.0105846

>  <SCORE.RESTR>
0

>  <SCORE.RESTR.CAVITY>
0

>  <SCORE.RESTR.norm>
0

>  <SCORE.SYSTEM>
0

>  <SCORE.SYSTEM.CONST>
0

>  <SCORE.SYSTEM.DIHEDRAL>
0

>  <SCORE.SYSTEM.SOLV>
0

>  <SCORE.SYSTEM.norm>
0

>  <SCORE.heavy>
27

>  <SCORE.norm>
-0.255995

>  <RMSD>
12.056

$$$$
ligand
 OpenBabel11021811473D
libRbt.so/2013.1/901 2013/11/27
 27 29  0  0  0  0  0  0  0  0999 V2000
   48.9724   54.1319   26.0074 N   0  0  0  0  0  0  0  0  0  0  0  0
   48.4442   53.4094   24.8524 C   0  0  2  0  0  0  0  0  0  0  0  0
   47.7378   52.0994   25.2079 C   0  0  0  0  0  0  0  0  0  0  0  0
   46.6232   51.9345   24.8375 O   0  0  0  0  0  0  0  0  0  0  0  0
   49.4355   53.2593   23.6794 C   0  0  0  0  0  0  0  0  0  0  0  0
   50.0548   54.5309   23.0354 C   0  0  0  0  0  0  0  0  0  0  0  0
   49.0691   55.4367   22.2503 C   0  0  2  0  0  0  0  0  0  0  0  0
   47.9879   55.9596   23.0855 N   0  0  0  0  0  0  0  0  0  0  0  0
   48.5588   54.7567   20.9425 C   0  0  0  0  0  0  0  0  0  0  0  0
   47.1960   53.9861   20.9829 C   0  0  1  0  0  0  0  0  0  0  0  0
   45.9641   54.7339   21.2077 O   0  0  0  0  0  0  0  0  0  0  0  0
   46.8758   53.0630   19.7741 C   0  0  1  0  0  0  0  0  0  0  0  0
   47.6969   51.9038   19.5813 O   0  0  0  0  0  0  0  0  0  0  0  0
   45.3237   52.9051   19.7805 C   0  0  1  0  0  0  0  0  0  0  0  0
   44.7879   51.6522   20.1328 O   0  0  0  0  0  0  0  0  0  0  0  0
   44.8608   54.1491   20.5455 C   0  0  2  0  0  0  0  0  0  0  0  0
   48.5275   50.9733   25.5144 O   0  0  0  0  0  0  0  0  0  0  0  0
   45.4206   58.4241   17.2443 N   0  0  0  0  0  0  0  0  0  0  0  0
   46.4299   57.7445   17.9357 C   0  0  0  0  0  0  0  0  0  0  0  0
   46.0941   56.6057   18.7875 N   0  0  0  0  0  0  0  0  0  0  0  0
   44.7920   56.1998   18.9098 C   0  0  0  0  0  0  0  0  0  0  0  0
   43.7821   56.8905   18.2119 C   0  0  0  0  0  0  0  0  0  0  0  0
   44.1174   58.0258   17.3639 C   0  0  0  0  0  0  0  0  0  0  0  0
   43.0697   58.7440   16.6373 N   0  0  0  0  0  0  0  0  0  0  0  0
   42.5201   56.2622   18.5181 N   0  0  0  0  0  0  0  0  0  0  0  0
   42.7762   55.1912   19.4063 C   0  0  0  0  0  0  0  0  0  0  0  0
   44.1772   55.1351   19.6593 N   0  0  0  0  0  0  0  0  0  0  0  0
  2  1  1  1  0  0  0
  2  3  1  0  0  0  0
  2  5  1  0  0  0  0
  3  4  1  0  0  0  0
  3 17  1  0  0  0  0
  5  6  1  0  0  0  0
  7  6  1  1  0  0  0
  7  8  1  0  0  0  0
  7  9  1  0  0  0  0
 10  9  1  6  0  0  0
 10 11  1  0  0  0  0
 10 12  1  0  0  0  0
 11 16  1  0  0  0  0
 12 13  1  1  0  0  0
 12 14  1  0  0  0  0
 14 15  1  1  0  0  0
 14 16  1  0  0  0  0
 16 27  1  6  0  0  0
 18 19  2  0  0  0  0
 18 23  1  0  0  0  0
 19 20  1  0  0  0  0
 20 21  2  0  0  0  0
 21 22  1  0  0  0  0
 21 27  1  0  0  0  0
 22 23  2  0  0  0  0
 22 25  1  0  0  0  0
 23 24  1  0  0  0  0
 25 26  2  0  0  0  0
 26 27  1  0  0  0  0
M  END
>  <CHROM.1>
125.03237054,-57.45294145,-68.03032528,60.58342049,95.08782976,66.27533762
34.40689195,46.39409810,54.64362167,20.97800268,-0.90589661,-0.65598339,-0.54708422

>  <Name>
ligand

>  <RI>
0

>  <Rbt.Current_Directory>
/home/itssahil/PROJECTS/Mol_Feturizer/New_Systems/rnas/3GX2

>  <Rbt.Executable>
rbdock ($Id: //depot/dev/client3/rdock/2013.1/src/exe/rbdock.cxx#4 $)

>  <Rbt.Library>
libRbt.so (2013.1, Build901 2013/11/27)

>  <Rbt.Parameter_File>
/export/apps/rDock/src/rDock_2013.1_src/data/scripts/dock_solv.prm

>  <Rbt.Receptor>
prm/blind_docking_80.prm

>  <SCORE>
-17.7925

>  <SCORE.INTER>
-16.5748

>  <SCORE.INTER.CONST>
1

>  <SCORE.INTER.POLAR>
0

>  <SCORE.INTER.ROT>
7

>  <SCORE.INTER.SOLV>
22.7863

>  <SCORE.INTER.VDW>
-26.912

>  <SCORE.INTER.norm>
-0.613881

>  <SCORE.INTRA>
-1.21768

>  <SCORE.INTRA.DIHEDRAL>
-5.16892

>  <SCORE.INTRA.DIHEDRAL.0>
13.9704

>  <SCORE.INTRA.POLAR>
0

>  <SCORE.INTRA.POLAR.0>
0

>  <SCORE.INTRA.REPUL>
0

>  <SCORE.INTRA.REPUL.0>
0

>  <SCORE.INTRA.SOLV>
4.02514

>  <SCORE.INTRA.SOLV.lig_0>
-70.9758

>  <SCORE.INTRA.VDW>
-0.64579

>  <SCORE.INTRA.VDW.0>
-2.70686

>  <SCORE.INTRA.norm>
-0.0450991

>  <SCORE.RESTR>
0

>  <SCORE.RESTR.CAVITY>
0

>  <SCORE.RESTR.norm>
0

>  <SCORE.SYSTEM>
0

>  <SCORE.SYSTEM.CONST>
0

>  <SCORE.SYSTEM.DIHEDRAL>
0

>  <SCORE.SYSTEM.SOLV>
0

>  <SCORE.SYSTEM.norm>
0

>  <SCORE.heavy>
27

>  <SCORE.norm>
-0.65898

>  <RMSD>
12.089

$$$$
ligand
 OpenBabel11021811473D
libRbt.so/2013.1/901 2013/11/27
 27 29  0  0  0  0  0  0  0  0999 V2000
   55.8404   46.1036   20.0037 N   0  0  0  0  0  0  0  0  0  0  0  0
   54.4432   46.2842   20.3912 C   0  0  2  0  0  0  0  0  0  0  0  0
   53.4427   45.6364   19.4317 C   0  0  0  0  0  0  0  0  0  0  0  0
   53.3446   46.0706   18.3322 O   0  0  0  0  0  0  0  0  0  0  0  0
   54.0628   47.7309   20.7704 C   0  0  0  0  0  0  0  0  0  0  0  0
   54.6518   48.3615   22.0629 C   0  0  0  0  0  0  0  0  0  0  0  0
   54.1776   49.8036   22.3853 C   0  0  2  0  0  0  0  0  0  0  0  0
   54.5225   50.7641   21.3372 N   0  0  0  0  0  0  0  0  0  0  0  0
   54.6201   50.2646   23.8083 C   0  0  0  0  0  0  0  0  0  0  0  0
   54.0819   51.6307   24.3529 C   0  0  1  0  0  0  0  0  0  0  0  0
   54.0945   52.7980   23.4785 O   0  0  0  0  0  0  0  0  0  0  0  0
   52.6576   51.6260   24.9751 C   0  0  1  0  0  0  0  0  0  0  0  0
   52.4610   50.8928   26.1912 O   0  0  0  0  0  0  0  0  0  0  0  0
   52.1695   53.1054   24.8896 C   0  0  1  0  0  0  0  0  0  0  0  0
   52.0570   53.8349   26.0879 O   0  0  0  0  0  0  0  0  0  0  0  0
   53.0222   53.6772   23.7527 C   0  0  2  0  0  0  0  0  0  0  0  0
   53.0403   44.3086   19.6781 O   0  0  0  0  0  0  0  0  0  0  0  0
   48.5907   56.0220   21.6668 N   0  0  0  0  0  0  0  0  0  0  0  0
   48.9997   56.0140   23.0053 C   0  0  0  0  0  0  0  0  0  0  0  0
   50.2304   55.3267   23.3901 N   0  0  0  0  0  0  0  0  0  0  0  0
   50.9871   54.6907   22.4424 C   0  0  0  0  0  0  0  0  0  0  0  0
   50.5673   54.7020   21.0979 C   0  0  0  0  0  0  0  0  0  0  0  0
   49.3403   55.3865   20.7153 C   0  0  0  0  0  0  0  0  0  0  0  0
   48.9031   55.4001   19.3188 N   0  0  0  0  0  0  0  0  0  0  0  0
   51.5360   53.9656   20.3231 N   0  0  0  0  0  0  0  0  0  0  0  0
   52.5396   53.5088   21.2094 C   0  0  0  0  0  0  0  0  0  0  0  0
   52.2187   53.9493   22.5258 N   0  0  0  0  0  0  0  0  0  0  0  0
  2  1  1  6  0  0  0
  2  3  1  0  0  0  0
  2  5  1  0  0  0  0
  3  4  1  0  0  0  0
  3 17  1  0  0  0  0
  5  6  1  0  0  0  0
  7  6  1  6  0  0  0
  7  8  1  0  0  0  0
  7  9  1  0  0  0  0
 10  9  1  6  0  0  0
 10 11  1  0  0  0  0
 10 12  1  0  0  0  0
 11 16  1  0  0  0  0
 12 13  1  1  0  0  0
 12 14  1  0  0  0  0
 14 15  1  1  0  0  0
 14 16  1  0  0  0  0
 16 27  1  6  0  0  0
 18 19  2  0  0  0  0
 18 23  1  0  0  0  0
 19 20  1  0  0  0  0
 20 21  2  0  0  0  0
 21 22  1  0  0  0  0
 21 27  1  0  0  0  0
 22 23  2  0  0  0  0
 22 25  1  0  0  0  0
 23 24  1  0  0  0  0
 25 26  2  0  0  0  0
 26 27  1  0  0  0  0
M  END
>  <CHROM.1>
-66.71799036,-68.00928142,-178.14967504,-60.46324770,-173.03159433,-45.24510408
173.71895195,52.51668694,51.43224328,22.14873731,0.86829253,0.93940833,-2.27004798

>  <Name>
ligand

>  <RI>
0

>  <Rbt.Current_Directory>
/home/itssahil/PROJECTS/Mol_Feturizer/New_Systems/rnas/3GX2

>  <Rbt.Executable>
rbdock ($Id: //depot/dev/client3/rdock/2013.1/src/exe/rbdock.cxx#4 $)

>  <Rbt.Library>
libRbt.so (2013.1, Build901 2013/11/27)

>  <Rbt.Parameter_File>
/export/apps/rDock/src/rDock_2013.1_src/data/scripts/dock_solv.prm

>  <Rbt.Receptor>
prm/blind_docking_100.prm

>  <SCORE>
-15.8446

>  <SCORE.INTER>
-12.9688

>  <SCORE.INTER.CONST>
1

>  <SCORE.INTER.POLAR>
0

>  <SCORE.INTER.ROT>
7

>  <SCORE.INTER.SOLV>
20.6797

>  <SCORE.INTER.VDW>
-23.8058

>  <SCORE.INTER.norm>
-0.480327

>  <SCORE.INTRA>
-2.87582

>  <SCORE.INTRA.DIHEDRAL>
-8.0533

>  <SCORE.INTRA.DIHEDRAL.0>
13.9704

>  <SCORE.INTRA.POLAR>
0

>  <SCORE.INTRA.POLAR.0>
0

>  <SCORE.INTRA.REPUL>
0

>  <SCORE.INTRA.REPUL.0>
0

>  <SCORE.INTRA.SOLV>
2.35105

>  <SCORE.INTRA.SOLV.lig_0>
-70.9758

>  <SCORE.INTRA.VDW>
-0.0246908

>  <SCORE.INTRA.VDW.0>
-2.70686

>  <SCORE.INTRA.norm>
-0.106512

>  <SCORE.RESTR>
0

>  <SCORE.RESTR.CAVITY>
0

>  <SCORE.RESTR.norm>
0

>  <SCORE.SYSTEM>
0

>  <SCORE.SYSTEM.CONST>
0

>  <SCORE.SYSTEM.DIHEDRAL>
0

>  <SCORE.SYSTEM.SOLV>
0

>  <SCORE.SYSTEM.norm>
0

>  <SCORE.heavy>
27

>  <SCORE.norm>
-0.586838

>  <RMSD>
12.108

$$$$
ligand
 OpenBabel11021811473D
libRbt.so/2013.1/901 2013/11/27
 27 29  0  0  0  0  0  0  0  0999 V2000
   56.6784   50.0852   23.0456 N   0  0  0  0  0  0  0  0  0  0  0  0
   55.7296   48.9913   22.8507 C   0  0  2  0  0  0  0  0  0  0  0  0
   54.9745   49.0521   21.5213 C   0  0  0  0  0  0  0  0  0  0  0  0
   55.3549   48.3830   20.6188 O   0  0  0  0  0  0  0  0  0  0  0  0
   54.8050   48.7195   24.0558 C   0  0  0  0  0  0  0  0  0  0  0  0
   54.3035   49.9114   24.9177 C   0  0  0  0  0  0  0  0  0  0  0  0
   53.3343   50.8945   24.2089 C   0  0  2  0  0  0  0  0  0  0  0  0
   53.9622   51.6127   23.0999 N   0  0  0  0  0  0  0  0  0  0  0  0
   52.6104   51.8382   25.2182 C   0  0  0  0  0  0  0  0  0  0  0  0
   51.5718   52.8708   24.6637 C   0  0  1  0  0  0  0  0  0  0  0  0
   51.9967   53.8315   23.6520 O   0  0  0  0  0  0  0  0  0  0  0  0
   50.2345   52.2967   24.1178 C   0  0  1  0  0  0  0  0  0  0  0  0
   49.3424   51.6747   25.0518 O   0  0  0  0  0  0  0  0  0  0  0  0
   49.6844   53.3909   23.1513 C   0  0  1  0  0  0  0  0  0  0  0  0
   48.5401   54.1082   23.5472 O   0  0  0  0  0  0  0  0  0  0  0  0
   50.9476   54.1673   22.7662 C   0  0  2  0  0  0  0  0  0  0  0  0
   53.6333   49.4843   21.5308 O   0  0  0  0  0  0  0  0  0  0  0  0
   50.1019   55.4524   17.5585 N   0  0  0  0  0  0  0  0  0  0  0  0
   49.4396   55.9643   18.6801 C   0  0  0  0  0  0  0  0  0  0  0  0
   49.7999   55.4998   20.0178 N   0  0  0  0  0  0  0  0  0  0  0  0
   50.7871   54.5643   20.1773 C   0  0  0  0  0  0  0  0  0  0  0  0
   51.4474   54.0528   19.0430 C   0  0  0  0  0  0  0  0  0  0  0  0
   51.0872   54.5157   17.7102 C   0  0  0  0  0  0  0  0  0  0  0  0
   51.7727   53.9863   16.5307 N   0  0  0  0  0  0  0  0  0  0  0  0
   52.4274   53.0947   19.4929 N   0  0  0  0  0  0  0  0  0  0  0  0
   52.3513   53.0305   20.9042 C   0  0  0  0  0  0  0  0  0  0  0  0
   51.3429   53.9345   21.3469 N   0  0  0  0  0  0  0  0  0  0  0  0
  2  1  1  1  0  0  0
  2  3  1  0  0  0  0
  2  5  1  0  0  0  0
  3  4  1  0  0  0  0
  3 17  1  0  0  0  0
  5  6  1  0  0  0  0
  7  6  1  1  0  0  0
  7  8  1  0  0  0  0
  7  9  1  0  0  0  0
 10  9  1  6  0  0  0
 10 11  1  0  0  0  0
 10 12  1  0  0  0  0
 11 16  1  0  0  0  0
 12 13  1  1  0  0  0
 12 14  1  0  0  0  0
 14 15  1  1  0  0  0
 14 16  1  0  0  0  0
 16 27  1  6  0  0  0
 18 19  2  0  0  0  0
 18 23  1  0  0  0  0
 19 20  1  0  0  0  0
 20 21  2  0  0  0  0
 21 22  1  0  0  0  0
 21 27  1  0  0  0  0
 22 23  2  0  0  0  0
 22 25  1  0  0  0  0
 23 24  1  0  0  0  0
 25 26  2  0  0  0  0
 26 27  1  0  0  0  0
M  END
>  <CHROM.1>
98.63720167,35.63249961,66.92995283,-64.94882526,-178.64519313,-57.00502545
-156.26405265,52.17464889,52.35753186,21.90131766,-0.74638763,0.71197601
-1.26398925

>  <Name>
ligand

>  <RI>
0

>  <Rbt.Current_Directory>
/home/itssahil/PROJECTS/Mol_Feturizer/New_Systems/rnas/3GX2

>  <Rbt.Executable>
rbdock ($Id: //depot/dev/client3/rdock/2013.1/src/exe/rbdock.cxx#4 $)

>  <Rbt.Library>
libRbt.so (2013.1, Build901 2013/11/27)

>  <Rbt.Parameter_File>
/export/apps/rDock/src/rDock_2013.1_src/data/scripts/dock_solv.prm

>  <Rbt.Receptor>
prm/blind_docking_100.prm

>  <SCORE>
-12.7197

>  <SCORE.INTER>
-12.429

>  <SCORE.INTER.CONST>
1

>  <SCORE.INTER.POLAR>
0

>  <SCORE.INTER.ROT>
7

>  <SCORE.INTER.SOLV>
14.5381

>  <SCORE.INTER.VDW>
-21.3987

>  <SCORE.INTER.norm>
-0.460332

>  <SCORE.INTRA>
-0.290764

>  <SCORE.INTRA.DIHEDRAL>
-7.25971

>  <SCORE.INTRA.DIHEDRAL.0>
13.9704

>  <SCORE.INTRA.POLAR>
0

>  <SCORE.INTRA.POLAR.0>
0

>  <SCORE.INTRA.REPUL>
0

>  <SCORE.INTRA.REPUL.0>
0

>  <SCORE.INTRA.SOLV>
7.7501

>  <SCORE.INTRA.SOLV.lig_0>
-70.9758

>  <SCORE.INTRA.VDW>
-0.535962

>  <SCORE.INTRA.VDW.0>
-2.70686

>  <SCORE.INTRA.norm>
-0.010769

>  <SCORE.RESTR>
0

>  <SCORE.RESTR.CAVITY>
0

>  <SCORE.RESTR.norm>
0

>  <SCORE.SYSTEM>
0

>  <SCORE.SYSTEM.CONST>
0

>  <SCORE.SYSTEM.DIHEDRAL>
0

>  <SCORE.SYSTEM.SOLV>
0

>  <SCORE.SYSTEM.norm>
0

>  <SCORE.heavy>
27

>  <SCORE.norm>
-0.471101

>  <RMSD>
12.144

$$$$
ligand
 OpenBabel11021811473D
libRbt.so/2013.1/901 2013/11/27
 27 29  0  0  0  0  0  0  0  0999 V2000
   52.8603   50.0075   24.5043 N   0  0  0  0  0  0  0  0  0  0  0  0
   53.2403   51.0094   23.5109 C   0  0  2  0  0  0  0  0  0  0  0  0
   54.2370   50.5029   22.4663 C   0  0  0  0  0  0  0  0  0  0  0  0
   54.1067   49.4036   22.0404 O   0  0  0  0  0  0  0  0  0  0  0  0
   53.6299   52.3820   24.0984 C   0  0  0  0  0  0  0  0  0  0  0  0
   52.5222   53.3104   24.6698 C   0  0  0  0  0  0  0  0  0  0  0  0
   51.6358   54.0282   23.6175 C   0  0  2  0  0  0  0  0  0  0  0  0
   52.3862   54.9729   22.7901 N   0  0  0  0  0  0  0  0  0  0  0  0
   50.3560   54.6533   24.2535 C   0  0  0  0  0  0  0  0  0  0  0  0
   49.1621   55.0317   23.3134 C   0  0  1  0  0  0  0  0  0  0  0  0
   49.4003   55.9312   22.1903 O   0  0  0  0  0  0  0  0  0  0  0  0
   48.3487   53.8557   22.7042 C   0  0  1  0  0  0  0  0  0  0  0  0
   47.5815   53.0388   23.5982 O   0  0  0  0  0  0  0  0  0  0  0  0
   47.6625   54.4481   21.4344 C   0  0  1  0  0  0  0  0  0  0  0  0
   46.2673   54.6317   21.4615 O   0  0  0  0  0  0  0  0  0  0  0  0
   48.5592   55.6419   21.0918 C   0  0  2  0  0  0  0  0  0  0  0  0
   54.9464   51.4502   21.7013 O   0  0  0  0  0  0  0  0  0  0  0  0
   52.8014   53.1256   18.8204 N   0  0  0  0  0  0  0  0  0  0  0  0
   52.3781   53.0471   20.1521 C   0  0  0  0  0  0  0  0  0  0  0  0
   51.2054   53.7993   20.5925 N   0  0  0  0  0  0  0  0  0  0  0  0
   50.5171   54.5811   19.7036 C   0  0  0  0  0  0  0  0  0  0  0  0
   50.9510   54.6561   18.3656 C   0  0  0  0  0  0  0  0  0  0  0  0
   52.1202   53.9067   17.9275 C   0  0  0  0  0  0  0  0  0  0  0  0
   52.5719   53.9825   16.5377 N   0  0  0  0  0  0  0  0  0  0  0  0
   50.0579   55.5399   17.6570 N   0  0  0  0  0  0  0  0  0  0  0  0
   49.0857   55.9985   18.5768 C   0  0  0  0  0  0  0  0  0  0  0  0
   49.3519   55.4145   19.8489 N   0  0  0  0  0  0  0  0  0  0  0  0
  2  1  1  1  0  0  0
  2  3  1  0  0  0  0
  2  5  1  0  0  0  0
  3  4  1  0  0  0  0
  3 17  1  0  0  0  0
  5  6  1  0  0  0  0
  7  6  1  1  0  0  0
  7  8  1  0  0  0  0
  7  9  1  0  0  0  0
 10  9  1  6  0  0  0
 10 11  1  0  0  0  0
 10 12  1  0  0  0  0
 11 16  1  0  0  0  0
 12 13  1  1  0  0  0
 12 14  1  0  0  0  0
 14 15  1  1  0  0  0
 14 16  1  0  0  0  0
 16 27  1  6  0  0  0
 18 19  2  0  0  0  0
 18 23  1  0  0  0  0
 19 20  1  0  0  0  0
 20 21  2  0  0  0  0
 21 22  1  0  0  0  0
 21 27  1  0  0  0  0
 22 23  2  0  0  0  0
 22 25  1  0  0  0  0
 23 24  1  0  0  0  0
 25 26  2  0  0  0  0
 26 27  1  0  0  0  0
M  END
>  <CHROM.1>
39.84626442,-73.07033575,-74.91096473,-64.53819262,-162.05550056,-55.62623490
47.45187867,51.03205314,53.60366567,21.45922527,0.58802508,-0.54547544,1.87482099

>  <Name>
ligand

>  <RI>
0

>  <Rbt.Current_Directory>
/home/itssahil/PROJECTS/Mol_Feturizer/New_Systems/rnas/3GX2

>  <Rbt.Executable>
rbdock ($Id: //depot/dev/client3/rdock/2013.1/src/exe/rbdock.cxx#4 $)

>  <Rbt.Library>
libRbt.so (2013.1, Build901 2013/11/27)

>  <Rbt.Parameter_File>
/export/apps/rDock/src/rDock_2013.1_src/data/scripts/dock_solv.prm

>  <Rbt.Receptor>
prm/blind_docking_80.prm

>  <SCORE>
-12.8666

>  <SCORE.INTER>
-9.93205

>  <SCORE.INTER.CONST>
1

>  <SCORE.INTER.POLAR>
0

>  <SCORE.INTER.ROT>
7

>  <SCORE.INTER.SOLV>
15.4749

>  <SCORE.INTER.VDW>
-20.0463

>  <SCORE.INTER.norm>
-0.367854

>  <SCORE.INTRA>
-2.95464

>  <SCORE.INTRA.DIHEDRAL>
-6.31236

>  <SCORE.INTRA.DIHEDRAL.0>
13.9704

>  <SCORE.INTRA.POLAR>
0

>  <SCORE.INTRA.POLAR.0>
0

>  <SCORE.INTRA.REPUL>
0

>  <SCORE.INTRA.REPUL.0>
0

>  <SCORE.INTRA.SOLV>
3.35067

>  <SCORE.INTRA.SOLV.lig_0>
-70.9758

>  <SCORE.INTRA.VDW>
-1.4738

>  <SCORE.INTRA.VDW.0>
-2.70686

>  <SCORE.INTRA.norm>
-0.109431

>  <SCORE.RESTR>
0.0200857

>  <SCORE.RESTR.CAVITY>
0.0200857

>  <SCORE.RESTR.norm>
0.000743914

>  <SCORE.SYSTEM>
0

>  <SCORE.SYSTEM.CONST>
0

>  <SCORE.SYSTEM.DIHEDRAL>
0

>  <SCORE.SYSTEM.SOLV>
0

>  <SCORE.SYSTEM.norm>
0

>  <SCORE.heavy>
27

>  <SCORE.norm>
-0.476541

>  <RMSD>
12.166

$$$$
ligand
 OpenBabel11021811473D
libRbt.so/2013.1/901 2013/11/27
 27 29  0  0  0  0  0  0  0  0999 V2000
   54.0858   53.4314   23.0235 N   0  0  0  0  0  0  0  0  0  0  0  0
   53.0610   52.5668   23.6041 C   0  0  2  0  0  0  0  0  0  0  0  0
   53.6210   51.3905   24.4066 C   0  0  0  0  0  0  0  0  0  0  0  0
   52.8651   50.6901   24.9939 O   0  0  0  0  0  0  0  0  0  0  0  0
   51.9421   52.1498   22.6267 C   0  0  0  0  0  0  0  0  0  0  0  0
   51.0348   53.2415   21.9940 C   0  0  0  0  0  0  0  0  0  0  0  0
   50.2531   54.1318   22.9964 C   0  0  2  0  0  0  0  0  0  0  0  0
   49.6471   53.3660   24.0856 N   0  0  0  0  0  0  0  0  0  0  0  0
   49.2437   55.0801   22.2788 C   0  0  0  0  0  0  0  0  0  0  0  0
   47.9301   54.4652   21.6883 C   0  0  1  0  0  0  0  0  0  0  0  0
   46.7913   55.3389   21.4292 O   0  0  0  0  0  0  0  0  0  0  0  0
   48.0725   53.6173   20.3935 C   0  0  1  0  0  0  0  0  0  0  0  0
   48.7909   52.3797   20.4796 O   0  0  0  0  0  0  0  0  0  0  0  0
   46.6572   53.6330   19.7372 C   0  0  1  0  0  0  0  0  0  0  0  0
   45.9132   52.4382   19.7408 O   0  0  0  0  0  0  0  0  0  0  0  0
   46.0262   54.8990   20.3251 C   0  0  2  0  0  0  0  0  0  0  0  0
   54.8886   50.8834   24.0577 O   0  0  0  0  0  0  0  0  0  0  0  0
   42.6059   57.7287   17.1976 N   0  0  0  0  0  0  0  0  0  0  0  0
   42.2882   56.7028   18.0951 C   0  0  0  0  0  0  0  0  0  0  0  0
   43.3460   56.0463   18.8600 N   0  0  0  0  0  0  0  0  0  0  0  0
   44.6498   56.4341   18.7020 C   0  0  0  0  0  0  0  0  0  0  0  0
   44.9611   57.4661   17.7952 C   0  0  0  0  0  0  0  0  0  0  0  0
   43.9064   58.1194   17.0327 C   0  0  0  0  0  0  0  0  0  0  0  0
   44.2277   59.1923   16.0909 N   0  0  0  0  0  0  0  0  0  0  0  0
   46.3890   57.6688   17.8249 N   0  0  0  0  0  0  0  0  0  0  0  0
   46.9354   56.7512   18.7527 C   0  0  0  0  0  0  0  0  0  0  0  0
   45.8743   55.9792   19.3078 N   0  0  0  0  0  0  0  0  0  0  0  0
  2  1  1  6  0  0  0
  2  3  1  0  0  0  0
  2  5  1  0  0  0  0
  3  4  1  0  0  0  0
  3 17  1  0  0  0  0
  5  6  1  0  0  0  0
  7  6  1  6  0  0  0
  7  8  1  0  0  0  0
  7  9  1  0  0  0  0
 10  9  1  6  0  0  0
 10 11  1  0  0  0  0
 10 12  1  0  0  0  0
 11 16  1  0  0  0  0
 12 13  1  1  0  0  0
 12 14  1  0  0  0  0
 14 15  1  1  0  0  0
 14 16  1  0  0  0  0
 16 27  1  6  0  0  0
 18 19  2  0  0  0  0
 18 23  1  0  0  0  0
 19 20  1  0  0  0  0
 20 21  2  0  0  0  0
 21 22  1  0  0  0  0
 21 27  1  0  0  0  0
 22 23  2  0  0  0  0
 22 25  1  0  0  0  0
 23 24  1  0  0  0  0
 25 26  2  0  0  0  0
 26 27  1  0  0  0  0
M  END
>  <CHROM.1>
174.68430054,-61.91357871,-58.29995388,-43.90585209,73.82670380,159.45840697
-129.40249330,48.11754274,54.55227124,20.73543371,-0.68274323,-0.28868875
-0.51258224

>  <Name>
ligand

>  <RI>
0

>  <Rbt.Current_Directory>
/home/itssahil/PROJECTS/Mol_Feturizer/New_Systems/rnas/3GX2

>  <Rbt.Executable>
rbdock ($Id: //depot/dev/client3/rdock/2013.1/src/exe/rbdock.cxx#4 $)

>  <Rbt.Library>
libRbt.so (2013.1, Build901 2013/11/27)

>  <Rbt.Parameter_File>
/export/apps/rDock/src/rDock_2013.1_src/data/scripts/dock_solv.prm

>  <Rbt.Receptor>
prm/blind_docking_80.prm

>  <SCORE>
-15.8536

>  <SCORE.INTER>
-14.7287

>  <SCORE.INTER.CONST>
1

>  <SCORE.INTER.POLAR>
0

>  <SCORE.INTER.ROT>
7

>  <SCORE.INTER.SOLV>
14.0204

>  <SCORE.INTER.VDW>
-22.7593

>  <SCORE.INTER.norm>
-0.545509

>  <SCORE.INTRA>
-1.12489

>  <SCORE.INTRA.DIHEDRAL>
-6.38703

>  <SCORE.INTRA.DIHEDRAL.0>
13.9704

>  <SCORE.INTRA.POLAR>
0

>  <SCORE.INTRA.POLAR.0>
0

>  <SCORE.INTRA.REPUL>
0

>  <SCORE.INTRA.REPUL.0>
0

>  <SCORE.INTRA.SOLV>
3.10866

>  <SCORE.INTRA.SOLV.lig_0>
-70.9758

>  <SCORE.INTRA.VDW>
0.514297

>  <SCORE.INTRA.VDW.0>
-2.70686

>  <SCORE.INTRA.norm>
-0.0416625

>  <SCORE.RESTR>
0

>  <SCORE.RESTR.CAVITY>
0

>  <SCORE.RESTR.norm>
0

>  <SCORE.SYSTEM>
0

>  <SCORE.SYSTEM.CONST>
0

>  <SCORE.SYSTEM.DIHEDRAL>
0

>  <SCORE.SYSTEM.SOLV>
0

>  <SCORE.SYSTEM.norm>
0

>  <SCORE.heavy>
27

>  <SCORE.norm>
-0.587172

>  <RMSD>
12.310

$$$$
ligand
 OpenBabel11021811473D
libRbt.so/2013.1/901 2013/11/27
 27 29  0  0  0  0  0  0  0  0999 V2000
   55.3699   48.9794   21.6341 N   0  0  0  0  0  0  0  0  0  0  0  0
   54.7304   49.7401   22.7053 C   0  0  2  0  0  0  0  0  0  0  0  0
   54.6759   49.0027   24.0450 C   0  0  0  0  0  0  0  0  0  0  0  0
   53.6162   48.7258   24.5002 O   0  0  0  0  0  0  0  0  0  0  0  0
   53.3836   50.3867   22.3193 C   0  0  0  0  0  0  0  0  0  0  0  0
   52.6585   51.3080   23.3394 C   0  0  0  0  0  0  0  0  0  0  0  0
   53.2928   52.7083   23.5520 C   0  0  2  0  0  0  0  0  0  0  0  0
   54.7078   52.6428   23.9176 N   0  0  0  0  0  0  0  0  0  0  0  0
   52.4506   53.5956   24.5198 C   0  0  0  0  0  0  0  0  0  0  0  0
   51.0814   54.1626   24.0138 C   0  0  1  0  0  0  0  0  0  0  0  0
   51.0747   55.1443   22.9351 O   0  0  0  0  0  0  0  0  0  0  0  0
   50.0011   53.1240   23.6013 C   0  0  1  0  0  0  0  0  0  0  0  0
   49.4472   52.2909   24.6281 O   0  0  0  0  0  0  0  0  0  0  0  0
   49.0401   53.8929   22.6426 C   0  0  1  0  0  0  0  0  0  0  0  0
   47.7437   54.1893   23.1036 O   0  0  0  0  0  0  0  0  0  0  0  0
   49.9207   55.0350   22.1262 C   0  0  2  0  0  0  0  0  0  0  0  0
   55.8056   48.2647   24.4509 O   0  0  0  0  0  0  0  0  0  0  0  0
   53.4065   52.8967   18.5535 N   0  0  0  0  0  0  0  0  0  0  0  0
   53.4506   52.7991   19.9490 C   0  0  0  0  0  0  0  0  0  0  0  0
   52.4205   53.4438   20.7604 N   0  0  0  0  0  0  0  0  0  0  0  0
   51.4090   54.1430   20.1578 C   0  0  0  0  0  0  0  0  0  0  0  0
   51.3731   54.2378   18.7528 C   0  0  0  0  0  0  0  0  0  0  0  0
   52.4005   53.5958   17.9449 C   0  0  0  0  0  0  0  0  0  0  0  0
   52.3643   53.6924   16.4852 N   0  0  0  0  0  0  0  0  0  0  0  0
   50.2182   55.0220   18.3892 N   0  0  0  0  0  0  0  0  0  0  0  0
   49.5609   55.4007   19.5833 C   0  0  0  0  0  0  0  0  0  0  0  0
   50.2818   54.8644   20.6891 N   0  0  0  0  0  0  0  0  0  0  0  0
  2  1  1  6  0  0  0
  2  3  1  0  0  0  0
  2  5  1  0  0  0  0
  3  4  1  0  0  0  0
  3 17  1  0  0  0  0
  5  6  1  0  0  0  0
  7  6  1  1  0  0  0
  7  8  1  0  0  0  0
  7  9  1  0  0  0  0
 10  9  1  6  0  0  0
 10 11  1  0  0  0  0
 10 12  1  0  0  0  0
 11 16  1  0  0  0  0
 12 13  1  1  0  0  0
 12 14  1  0  0  0  0
 14 15  1  1  0  0  0
 14 16  1  0  0  0  0
 16 27  1  6  0  0  0
 18 19  2  0  0  0  0
 18 23  1  0  0  0  0
 19 20  1  0  0  0  0
 20 21  2  0  0  0  0
 21 22  1  0  0  0  0
 21 27  1  0  0  0  0
 22 23  2  0  0  0  0
 22 25  1  0  0  0  0
 23 24  1  0  0  0  0
 25 26  2  0  0  0  0
 26 27  1  0  0  0  0
M  END
>  <CHROM.1>
-116.33825721,-175.48829337,73.24172363,-54.42850870,-71.71682458,-66.50599526
35.23906522,52.07190169,52.65568657,21.92459756,-0.75403196,0.69632322,-1.21907592

>  <Name>
ligand

>  <RI>
0

>  <Rbt.Current_Directory>
/home/itssahil/PROJECTS/Mol_Feturizer/New_Systems/rnas/3GX2

>  <Rbt.Executable>
rbdock ($Id: //depot/dev/client3/rdock/2013.1/src/exe/rbdock.cxx#4 $)

>  <Rbt.Library>
libRbt.so (2013.1, Build901 2013/11/27)

>  <Rbt.Parameter_File>
/export/apps/rDock/src/rDock_2013.1_src/data/scripts/dock_solv.prm

>  <Rbt.Receptor>
prm/blind_docking_80.prm

>  <SCORE>
-12.7437

>  <SCORE.INTER>
-9.44212

>  <SCORE.INTER.CONST>
1

>  <SCORE.INTER.POLAR>
0

>  <SCORE.INTER.ROT>
7

>  <SCORE.INTER.SOLV>
16.5723

>  <SCORE.INTER.VDW>
-20.0855

>  <SCORE.INTER.norm>
-0.349708

>  <SCORE.INTRA>
-3.30373

>  <SCORE.INTRA.DIHEDRAL>
-7.69353

>  <SCORE.INTRA.DIHEDRAL.0>
13.9704

>  <SCORE.INTRA.POLAR>
0

>  <SCORE.INTRA.POLAR.0>
0

>  <SCORE.INTRA.REPUL>
0

>  <SCORE.INTRA.REPUL.0>
0

>  <SCORE.INTRA.SOLV>
2.08488

>  <SCORE.INTRA.SOLV.lig_0>
-70.9758

>  <SCORE.INTRA.VDW>
-0.499412

>  <SCORE.INTRA.VDW.0>
-2.70686

>  <SCORE.INTRA.norm>
-0.122361

>  <SCORE.RESTR>
0.00215362

>  <SCORE.RESTR.CAVITY>
0.00215362

>  <SCORE.RESTR.norm>
7.97636e-05

>  <SCORE.SYSTEM>
0

>  <SCORE.SYSTEM.CONST>
0

>  <SCORE.SYSTEM.DIHEDRAL>
0

>  <SCORE.SYSTEM.SOLV>
0

>  <SCORE.SYSTEM.norm>
0

>  <SCORE.heavy>
27

>  <SCORE.norm>
-0.471989

>  <RMSD>
12.331

$$$$
ligand
 OpenBabel11021811473D
libRbt.so/2013.1/901 2013/11/27
 27 29  0  0  0  0  0  0  0  0999 V2000
   56.0185   46.1404   18.0808 N   0  0  0  0  0  0  0  0  0  0  0  0
   55.1481   46.2915   19.2447 C   0  0  2  0  0  0  0  0  0  0  0  0
   53.6777   45.9717   18.9676 C   0  0  0  0  0  0  0  0  0  0  0  0
   53.1279   45.1774   19.6558 O   0  0  0  0  0  0  0  0  0  0  0  0
   55.3406   47.6087   20.0250 C   0  0  0  0  0  0  0  0  0  0  0  0
   54.5010   47.8666   21.3070 C   0  0  0  0  0  0  0  0  0  0  0  0
   54.7261   49.2393   21.9950 C   0  0  2  0  0  0  0  0  0  0  0  0
   56.0573   49.3677   22.5878 N   0  0  0  0  0  0  0  0  0  0  0  0
   53.5767   49.5962   22.9874 C   0  0  0  0  0  0  0  0  0  0  0  0
   53.5101   51.0513   23.5625 C   0  0  1  0  0  0  0  0  0  0  0  0
   53.5736   52.1816   22.6431 O   0  0  0  0  0  0  0  0  0  0  0  0
   52.3164   51.3805   24.5020 C   0  0  1  0  0  0  0  0  0  0  0  0
   52.2603   50.7158   25.7709 O   0  0  0  0  0  0  0  0  0  0  0  0
   52.1696   52.9328   24.4475 C   0  0  1  0  0  0  0  0  0  0  0  0
   52.5193   53.6707   25.5938 O   0  0  0  0  0  0  0  0  0  0  0  0
   52.8274   53.2874   23.1102 C   0  0  2  0  0  0  0  0  0  0  0  0
   52.9038   46.9224   18.2727 O   0  0  0  0  0  0  0  0  0  0  0  0
   48.2312   56.0214   22.1682 N   0  0  0  0  0  0  0  0  0  0  0  0
   48.8728   55.8327   23.3976 C   0  0  0  0  0  0  0  0  0  0  0  0
   50.1123   55.0619   23.4653 N   0  0  0  0  0  0  0  0  0  0  0  0
   50.6499   54.5242   22.3264 C   0  0  0  0  0  0  0  0  0  0  0  0
   49.9968   54.7173   21.0934 C   0  0  0  0  0  0  0  0  0  0  0  0
   48.7611   55.4849   21.0269 C   0  0  0  0  0  0  0  0  0  0  0  0
   48.0817   55.6874   19.7467 N   0  0  0  0  0  0  0  0  0  0  0  0
   50.7680   54.0514   20.0722 N   0  0  0  0  0  0  0  0  0  0  0  0
   51.8874   53.4542   20.6982 C   0  0  0  0  0  0  0  0  0  0  0  0
   51.8331   53.7373   22.0935 N   0  0  0  0  0  0  0  0  0  0  0  0
  2  1  1  6  0  0  0
  2  3  1  0  0  0  0
  2  5  1  0  0  0  0
  3  4  1  0  0  0  0
  3 17  1  0  0  0  0
  5  6  1  0  0  0  0
  7  6  1  1  0  0  0
  7  8  1  0  0  0  0
  7  9  1  0  0  0  0
 10  9  1  6  0  0  0
 10 11  1  0  0  0  0
 10 12  1  0  0  0  0
 11 16  1  0  0  0  0
 12 13  1  1  0  0  0
 12 14  1  0  0  0  0
 14 15  1  1  0  0  0
 14 16  1  0  0  0  0
 16 27  1  6  0  0  0
 18 19  2  0  0  0  0
 18 23  1  0  0  0  0
 19 20  1  0  0  0  0
 20 21  2  0  0  0  0
 21 22  1  0  0  0  0
 21 27  1  0  0  0  0
 22 23  2  0  0  0  0
 22 25  1  0  0  0  0
 23 24  1  0  0  0  0
 25 26  2  0  0  0  0
 26 27  1  0  0  0  0
M  END
>  <CHROM.1>
126.24648997,-178.22469518,-177.87313981,-67.93084424,-168.85294227,50.49232888
159.40280833,52.40560891,51.29559095,21.81869864,0.74964054,0.86573710,-2.14110488

>  <Name>
ligand

>  <RI>
0

>  <Rbt.Current_Directory>
/home/itssahil/PROJECTS/Mol_Feturizer/New_Systems/rnas/3GX2

>  <Rbt.Executable>
rbdock ($Id: //depot/dev/client3/rdock/2013.1/src/exe/rbdock.cxx#4 $)

>  <Rbt.Library>
libRbt.so (2013.1, Build901 2013/11/27)

>  <Rbt.Parameter_File>
/export/apps/rDock/src/rDock_2013.1_src/data/scripts/dock_solv.prm

>  <Rbt.Receptor>
prm/blind_docking_100.prm

>  <SCORE>
-16.774

>  <SCORE.INTER>
-13.4716

>  <SCORE.INTER.CONST>
1

>  <SCORE.INTER.POLAR>
0

>  <SCORE.INTER.ROT>
7

>  <SCORE.INTER.SOLV>
23.854

>  <SCORE.INTER.VDW>
-25.1991

>  <SCORE.INTER.norm>
-0.498948

>  <SCORE.INTRA>
-3.30246

>  <SCORE.INTRA.DIHEDRAL>
-8.03813

>  <SCORE.INTRA.DIHEDRAL.0>
13.9704

>  <SCORE.INTRA.POLAR>
0

>  <SCORE.INTRA.POLAR.0>
0

>  <SCORE.INTRA.REPUL>
0

>  <SCORE.INTRA.REPUL.0>
0

>  <SCORE.INTRA.SOLV>
0.439746

>  <SCORE.INTRA.SOLV.lig_0>
-70.9758

>  <SCORE.INTRA.VDW>
0.496728

>  <SCORE.INTRA.VDW.0>
-2.70686

>  <SCORE.INTRA.norm>
-0.122314

>  <SCORE.RESTR>
0

>  <SCORE.RESTR.CAVITY>
0

>  <SCORE.RESTR.norm>
0

>  <SCORE.SYSTEM>
0

>  <SCORE.SYSTEM.CONST>
0

>  <SCORE.SYSTEM.DIHEDRAL>
0

>  <SCORE.SYSTEM.SOLV>
0

>  <SCORE.SYSTEM.norm>
0

>  <SCORE.heavy>
27

>  <SCORE.norm>
-0.621261

>  <RMSD>
12.336

$$$$
ligand
 OpenBabel11021811473D
libRbt.so/2013.1/901 2013/11/27
 27 29  0  0  0  0  0  0  0  0999 V2000
   55.6042   46.4379   18.6782 N   0  0  0  0  0  0  0  0  0  0  0  0
   54.4706   46.3906   19.5989 C   0  0  2  0  0  0  0  0  0  0  0  0
   53.1624   45.9307   18.9520 C   0  0  0  0  0  0  0  0  0  0  0  0
   52.7013   46.5816   18.0742 O   0  0  0  0  0  0  0  0  0  0  0  0
   54.2991   47.6507   20.4730 C   0  0  0  0  0  0  0  0  0  0  0  0
   55.3755   47.9917   21.5407 C   0  0  0  0  0  0  0  0  0  0  0  0
   55.2247   49.3729   22.2321 C   0  0  2  0  0  0  0  0  0  0  0  0
   56.3597   49.7056   23.0931 N   0  0  0  0  0  0  0  0  0  0  0  0
   53.8473   49.5259   22.9481 C   0  0  0  0  0  0  0  0  0  0  0  0
   53.5162   50.8861   23.6499 C   0  0  1  0  0  0  0  0  0  0  0  0
   53.6290   52.1242   22.8874 O   0  0  0  0  0  0  0  0  0  0  0  0
   52.1382   50.9914   24.3612 C   0  0  1  0  0  0  0  0  0  0  0  0
   51.9163   50.1703   25.5152 O   0  0  0  0  0  0  0  0  0  0  0  0
   51.8370   52.5200   24.4441 C   0  0  1  0  0  0  0  0  0  0  0  0
   51.8823   53.1353   25.7091 O   0  0  0  0  0  0  0  0  0  0  0  0
   52.6928   53.0947   23.3109 C   0  0  2  0  0  0  0  0  0  0  0  0
   52.8072   44.5707   19.0506 O   0  0  0  0  0  0  0  0  0  0  0  0
   48.4060   56.0439   21.7574 N   0  0  0  0  0  0  0  0  0  0  0  0
   48.8697   55.8373   23.0617 C   0  0  0  0  0  0  0  0  0  0  0  0
   50.0486   55.0065   23.2960 N   0  0  0  0  0  0  0  0  0  0  0  0
   50.7033   54.4297   22.2406 C   0  0  0  0  0  0  0  0  0  0  0  0
   50.2289   54.6411   20.9313 C   0  0  0  0  0  0  0  0  0  0  0  0
   49.0535   55.4686   20.6986 C   0  0  0  0  0  0  0  0  0  0  0  0
   48.5597   55.6903   19.3390 N   0  0  0  0  0  0  0  0  0  0  0  0
   51.0928   53.9260   20.0241 N   0  0  0  0  0  0  0  0  0  0  0  0
   52.0882   53.2808   20.7951 C   0  0  0  0  0  0  0  0  0  0  0  0
   51.8652   53.5821   22.1697 N   0  0  0  0  0  0  0  0  0  0  0  0
  2  1  1  6  0  0  0
  2  3  1  0  0  0  0
  2  5  1  0  0  0  0
  3  4  1  0  0  0  0
  3 17  1  0  0  0  0
  5  6  1  0  0  0  0
  7  6  1  1  0  0  0
  7  8  1  0  0  0  0
  7  9  1  0  0  0  0
 10  9  1  6  0  0  0
 10 11  1  0  0  0  0
 10 12  1  0  0  0  0
 11 16  1  0  0  0  0
 12 13  1  1  0  0  0
 12 14  1  0  0  0  0
 14 15  1  1  0  0  0
 14 16  1  0  0  0  0
 16 27  1  6  0  0  0
 18 19  2  0  0  0  0
 18 23  1  0  0  0  0
 19 20  1  0  0  0  0
 20 21  2  0  0  0  0
 21 22  1  0  0  0  0
 21 27  1  0  0  0  0
 22 23  2  0  0  0  0
 22 25  1  0  0  0  0
 23 24  1  0  0  0  0
 25 26  2  0  0  0  0
 26 27  1  0  0  0  0
M  END
>  <CHROM.1>
-61.86802953,-66.45026110,171.80155652,-172.48229926,-177.73361457,53.41280061
171.11618703,52.35688646,51.17616227,21.81706923,0.77559521,0.89331508,-2.19742152

>  <Name>
ligand

>  <RI>
0

>  <Rbt.Current_Directory>
/home/itssahil/PROJECTS/Mol_Feturizer/New_Systems/rnas/3GX2

>  <Rbt.Executable>
rbdock ($Id: //depot/dev/client3/rdock/2013.1/src/exe/rbdock.cxx#4 $)

>  <Rbt.Library>
libRbt.so (2013.1, Build901 2013/11/27)

>  <Rbt.Parameter_File>
/export/apps/rDock/src/rDock_2013.1_src/data/scripts/dock_solv.prm

>  <Rbt.Receptor>
prm/blind_docking_80.prm

>  <SCORE>
-17.1901

>  <SCORE.INTER>
-13.8512

>  <SCORE.INTER.CONST>
1

>  <SCORE.INTER.POLAR>
0

>  <SCORE.INTER.ROT>
7

>  <SCORE.INTER.SOLV>
23.3181

>  <SCORE.INTER.VDW>
-25.2735

>  <SCORE.INTER.norm>
-0.513007

>  <SCORE.INTRA>
-3.36091

>  <SCORE.INTRA.DIHEDRAL>
-8.64024

>  <SCORE.INTRA.DIHEDRAL.0>
13.9704

>  <SCORE.INTRA.POLAR>
0

>  <SCORE.INTRA.POLAR.0>
0

>  <SCORE.INTRA.REPUL>
0

>  <SCORE.INTRA.REPUL.0>
0

>  <SCORE.INTRA.SOLV>
0.361991

>  <SCORE.INTRA.SOLV.lig_0>
-70.9758

>  <SCORE.INTRA.VDW>
0.778216

>  <SCORE.INTRA.VDW.0>
-2.70686

>  <SCORE.INTRA.norm>
-0.124478

>  <SCORE.RESTR>
0.0219634

>  <SCORE.RESTR.CAVITY>
0.0219634

>  <SCORE.RESTR.norm>
0.00081346

>  <SCORE.SYSTEM>
0

>  <SCORE.SYSTEM.CONST>
0

>  <SCORE.SYSTEM.DIHEDRAL>
0

>  <SCORE.SYSTEM.SOLV>
0

>  <SCORE.SYSTEM.norm>
0

>  <SCORE.heavy>
27

>  <SCORE.norm>
-0.636672

>  <RMSD>
12.354

$$$$
ligand
 OpenBabel11021811473D
libRbt.so/2013.1/901 2013/11/27
 27 29  0  0  0  0  0  0  0  0999 V2000
   44.4944   56.9803   16.0860 N   0  0  0  0  0  0  0  0  0  0  0  0
   44.5658   56.6292   17.5025 C   0  0  2  0  0  0  0  0  0  0  0  0
   43.2038   56.5626   18.1965 C   0  0  0  0  0  0  0  0  0  0  0  0
   43.1632   56.6319   19.3799 O   0  0  0  0  0  0  0  0  0  0  0  0
   45.6142   57.4232   18.3098 C   0  0  0  0  0  0  0  0  0  0  0  0
   47.0406   56.8351   18.4955 C   0  0  0  0  0  0  0  0  0  0  0  0
   47.1219   55.5009   19.2840 C   0  0  2  0  0  0  0  0  0  0  0  0
   46.1656   55.4334   20.3889 N   0  0  0  0  0  0  0  0  0  0  0  0
   48.5816   55.1598   19.7155 C   0  0  0  0  0  0  0  0  0  0  0  0
   48.7967   54.1537   20.8961 C   0  0  1  0  0  0  0  0  0  0  0  0
   49.8853   53.1865   20.8152 O   0  0  0  0  0  0  0  0  0  0  0  0
   48.9208   54.7607   22.3216 C   0  0  1  0  0  0  0  0  0  0  0  0
   47.7655   55.4005   22.8794 O   0  0  0  0  0  0  0  0  0  0  0  0
   49.6747   53.6828   23.1605 C   0  0  1  0  0  0  0  0  0  0  0  0
   48.9525   52.9913   24.1509 O   0  0  0  0  0  0  0  0  0  0  0  0
   50.4163   52.8783   22.0883 C   0  0  2  0  0  0  0  0  0  0  0  0
   42.0555   56.9040   17.4544 O   0  0  0  0  0  0  0  0  0  0  0  0
   55.3458   50.6148   22.3398 N   0  0  0  0  0  0  0  0  0  0  0  0
   54.1086   49.9607   22.3212 C   0  0  0  0  0  0  0  0  0  0  0  0
   52.8722   50.7362   22.2512 N   0  0  0  0  0  0  0  0  0  0  0  0
   52.9209   52.1038   22.2017 C   0  0  0  0  0  0  0  0  0  0  0  0
   54.1701   52.7542   22.2227 C   0  0  0  0  0  0  0  0  0  0  0  0
   55.4019   51.9807   22.2933 C   0  0  0  0  0  0  0  0  0  0  0  0
   56.7007   52.6546   22.3142 N   0  0  0  0  0  0  0  0  0  0  0  0
   53.9327   54.1758   22.1627 N   0  0  0  0  0  0  0  0  0  0  0  0
   52.5335   54.3772   22.1083 C   0  0  0  0  0  0  0  0  0  0  0  0
   51.8898   53.1063   22.1294 N   0  0  0  0  0  0  0  0  0  0  0  0
  2  1  1  6  0  0  0
  2  3  1  0  0  0  0
  2  5  1  0  0  0  0
  3  4  1  0  0  0  0
  3 17  1  0  0  0  0
  5  6  1  0  0  0  0
  7  6  1  1  0  0  0
  7  8  1  0  0  0  0
  7  9  1  0  0  0  0
 10  9  1  6  0  0  0
 10 11  1  0  0  0  0
 10 12  1  0  0  0  0
 11 16  1  0  0  0  0
 12 13  1  1  0  0  0
 12 14  1  0  0  0  0
 14 15  1  6  0  0  0
 14 16  1  0  0  0  0
 16 27  1  6  0  0  0
 18 19  2  0  0  0  0
 18 23  1  0  0  0  0
 19 20  1  0  0  0  0
 20 21  2  0  0  0  0
 21 22  1  0  0  0  0
 21 27  1  0  0  0  0
 22 23  2  0  0  0  0
 22 25  1  0  0  0  0
 23 24  1  0  0  0  0
 25 26  2  0  0  0  0
 26 27  1  0  0  0  0
M  END
>  <CHROM.1>
-160.68975369,-93.39649635,-63.15115340,-37.16806560,159.54435033,140.90760833
-109.44407888,49.32813332,54.26929861,20.84115509,-2.63793362,-0.27264439
1.95250928

>  <Name>
ligand

>  <RI>
0

>  <Rbt.Current_Directory>
/home/itssahil/PROJECTS/Mol_Feturizer/New_Systems/rnas/3GX2

>  <Rbt.Executable>
rbdock ($Id: //depot/dev/client3/rdock/2013.1/src/exe/rbdock.cxx#4 $)

>  <Rbt.Library>
libRbt.so (2013.1, Build901 2013/11/27)

>  <Rbt.Parameter_File>
/export/apps/rDock/src/rDock_2013.1_src/data/scripts/dock_solv.prm

>  <Rbt.Receptor>
prm/blind_docking_100.prm

>  <SCORE>
-7.15038

>  <SCORE.INTER>
-10.3053

>  <SCORE.INTER.CONST>
1

>  <SCORE.INTER.POLAR>
0

>  <SCORE.INTER.ROT>
7

>  <SCORE.INTER.SOLV>
18.0437

>  <SCORE.INTER.VDW>
-21.1514

>  <SCORE.INTER.norm>
-0.381677

>  <SCORE.INTRA>
3.15489

>  <SCORE.INTRA.DIHEDRAL>
0.500517

>  <SCORE.INTRA.DIHEDRAL.0>
13.9704

>  <SCORE.INTRA.POLAR>
0

>  <SCORE.INTRA.POLAR.0>
0

>  <SCORE.INTRA.REPUL>
0

>  <SCORE.INTRA.REPUL.0>
0

>  <SCORE.INTRA.SOLV>
4.34348

>  <SCORE.INTRA.SOLV.lig_0>
-70.9758

>  <SCORE.INTRA.VDW>
0.732894

>  <SCORE.INTRA.VDW.0>
-2.70686

>  <SCORE.INTRA.norm>
0.116848

>  <SCORE.RESTR>
0

>  <SCORE.RESTR.CAVITY>
0

>  <SCORE.RESTR.norm>
0

>  <SCORE.SYSTEM>
0

>  <SCORE.SYSTEM.CONST>
0

>  <SCORE.SYSTEM.DIHEDRAL>
0

>  <SCORE.SYSTEM.SOLV>
0

>  <SCORE.SYSTEM.norm>
0

>  <SCORE.heavy>
27

>  <SCORE.norm>
-0.264829

>  <RMSD>
12.363

$$$$
ligand
 OpenBabel11021811473D
libRbt.so/2013.1/901 2013/11/27
 27 29  0  0  0  0  0  0  0  0999 V2000
   53.4855   45.7905   18.9911 N   0  0  0  0  0  0  0  0  0  0  0  0
   54.2842   45.9442   20.2049 C   0  0  2  0  0  0  0  0  0  0  0  0
   54.0467   44.8507   21.2486 C   0  0  0  0  0  0  0  0  0  0  0  0
   53.0606   44.1959   21.1735 O   0  0  0  0  0  0  0  0  0  0  0  0
   54.2709   47.3645   20.8080 C   0  0  0  0  0  0  0  0  0  0  0  0
   55.2102   47.6966   22.0007 C   0  0  0  0  0  0  0  0  0  0  0  0
   55.1780   49.1676   22.4943 C   0  0  2  0  0  0  0  0  0  0  0  0
   56.3193   49.5082   23.3437 N   0  0  0  0  0  0  0  0  0  0  0  0
   53.8055   49.5448   23.1323 C   0  0  0  0  0  0  0  0  0  0  0  0
   53.6206   50.9888   23.7094 C   0  0  1  0  0  0  0  0  0  0  0  0
   53.7591   52.1334   22.8161 O   0  0  0  0  0  0  0  0  0  0  0  0
   52.3102   51.2669   24.4978 C   0  0  1  0  0  0  0  0  0  0  0  0
   52.1208   50.5831   25.7434 O   0  0  0  0  0  0  0  0  0  0  0  0
   52.1200   52.8144   24.4411 C   0  0  1  0  0  0  0  0  0  0  0  0
   52.3016   53.5469   25.6291 O   0  0  0  0  0  0  0  0  0  0  0  0
   52.9250   53.2084   23.1987 C   0  0  2  0  0  0  0  0  0  0  0  0
   55.1590   44.3303   21.9399 O   0  0  0  0  0  0  0  0  0  0  0  0
   48.5366   56.0327   21.6978 N   0  0  0  0  0  0  0  0  0  0  0  0
   49.0504   55.8813   22.9908 C   0  0  0  0  0  0  0  0  0  0  0  0
   50.2506   55.0777   23.2117 N   0  0  0  0  0  0  0  0  0  0  0  0
   50.8762   54.4725   22.1545 C   0  0  0  0  0  0  0  0  0  0  0  0
   50.3514   54.6284   20.8567 C   0  0  0  0  0  0  0  0  0  0  0  0
   49.1548   55.4288   20.6375 C   0  0  0  0  0  0  0  0  0  0  0  0
   48.6087   55.5927   19.2898 N   0  0  0  0  0  0  0  0  0  0  0  0
   51.1938   53.8936   19.9449 N   0  0  0  0  0  0  0  0  0  0  0  0
   52.2269   53.2925   20.7017 C   0  0  0  0  0  0  0  0  0  0  0  0
   52.0488   53.6408   22.0718 N   0  0  0  0  0  0  0  0  0  0  0  0
  2  1  1  6  0  0  0
  2  3  1  0  0  0  0
  2  5  1  0  0  0  0
  3  4  1  0  0  0  0
  3 17  1  0  0  0  0
  5  6  1  0  0  0  0
  7  6  1  1  0  0  0
  7  8  1  0  0  0  0
  7  9  1  0  0  0  0
 10  9  1  6  0  0  0
 10 11  1  0  0  0  0
 10 12  1  0  0  0  0
 11 16  1  0  0  0  0
 12 13  1  1  0  0  0
 12 14  1  0  0  0  0
 14 15  1  1  0  0  0
 14 16  1  0  0  0  0
 16 27  1  6  0  0  0
 18 19  2  0  0  0  0
 18 23  1  0  0  0  0
 19 20  1  0  0  0  0
 20 21  2  0  0  0  0
 21 22  1  0  0  0  0
 21 27  1  0  0  0  0
 22 23  2  0  0  0  0
 22 25  1  0  0  0  0
 23 24  1  0  0  0  0
 25 26  2  0  0  0  0
 26 27  1  0  0  0  0
M  END
>  <CHROM.1>
-18.36747222,-172.91884514,177.09928331,-164.06790625,178.69346739,60.60057159
164.54337742,52.51473335,51.01373621,22.22402848,0.73902214,0.95306395,-2.34652119

>  <Name>
ligand

>  <RI>
0

>  <Rbt.Current_Directory>
/home/itssahil/PROJECTS/Mol_Feturizer/New_Systems/rnas/3GX2

>  <Rbt.Executable>
rbdock ($Id: //depot/dev/client3/rdock/2013.1/src/exe/rbdock.cxx#4 $)

>  <Rbt.Library>
libRbt.so (2013.1, Build901 2013/11/27)

>  <Rbt.Parameter_File>
/export/apps/rDock/src/rDock_2013.1_src/data/scripts/dock_solv.prm

>  <Rbt.Receptor>
prm/blind_docking_100.prm

>  <SCORE>
-15.0452

>  <SCORE.INTER>
-11.66

>  <SCORE.INTER.CONST>
1

>  <SCORE.INTER.POLAR>
0

>  <SCORE.INTER.ROT>
7

>  <SCORE.INTER.SOLV>
21.3096

>  <SCORE.INTER.VDW>
-23.1432

>  <SCORE.INTER.norm>
-0.43185

>  <SCORE.INTRA>
-3.38523

>  <SCORE.INTRA.DIHEDRAL>
-8.45116

>  <SCORE.INTRA.DIHEDRAL.0>
13.9704

>  <SCORE.INTRA.POLAR>
0

>  <SCORE.INTRA.POLAR.0>
0

>  <SCORE.INTRA.REPUL>
0

>  <SCORE.INTRA.REPUL.0>
0

>  <SCORE.INTRA.SOLV>
0.108714

>  <SCORE.INTRA.SOLV.lig_0>
-70.9758

>  <SCORE.INTRA.VDW>
0.785996

>  <SCORE.INTRA.VDW.0>
-2.70686

>  <SCORE.INTRA.norm>
-0.125379

>  <SCORE.RESTR>
0

>  <SCORE.RESTR.CAVITY>
0

>  <SCORE.RESTR.norm>
0

>  <SCORE.SYSTEM>
0

>  <SCORE.SYSTEM.CONST>
0

>  <SCORE.SYSTEM.DIHEDRAL>
0

>  <SCORE.SYSTEM.SOLV>
0

>  <SCORE.SYSTEM.norm>
0

>  <SCORE.heavy>
27

>  <SCORE.norm>
-0.557229

>  <RMSD>
12.384

$$$$
ligand
 OpenBabel11021811473D
libRbt.so/2013.1/901 2013/11/27
 27 29  0  0  0  0  0  0  0  0999 V2000
   55.5758   46.4048   18.7683 N   0  0  0  0  0  0  0  0  0  0  0  0
   54.4273   46.3153   19.6672 C   0  0  2  0  0  0  0  0  0  0  0  0
   53.1389   45.8494   18.9860 C   0  0  0  0  0  0  0  0  0  0  0  0
   52.7059   46.4904   18.0869 O   0  0  0  0  0  0  0  0  0  0  0  0
   54.2186   47.5501   20.5688 C   0  0  0  0  0  0  0  0  0  0  0  0
   55.2651   47.8771   21.6703 C   0  0  0  0  0  0  0  0  0  0  0  0
   55.1907   49.3079   22.2666 C   0  0  2  0  0  0  0  0  0  0  0  0
   56.3498   49.6405   23.0948 N   0  0  0  0  0  0  0  0  0  0  0  0
   53.8302   49.5786   22.9801 C   0  0  0  0  0  0  0  0  0  0  0  0
   53.5866   50.9889   23.6157 C   0  0  1  0  0  0  0  0  0  0  0  0
   53.7201   52.1768   22.7800 O   0  0  0  0  0  0  0  0  0  0  0  0
   52.2452   51.1949   24.3734 C   0  0  1  0  0  0  0  0  0  0  0  0
   52.0369   50.4495   25.5801 O   0  0  0  0  0  0  0  0  0  0  0  0
   52.0129   52.7377   24.3807 C   0  0  1  0  0  0  0  0  0  0  0  0
   52.1368   53.4193   25.6059 O   0  0  0  0  0  0  0  0  0  0  0  0
   52.8443   53.2101   23.1839 C   0  0  2  0  0  0  0  0  0  0  0  0
   52.7787   44.4910   19.0896 O   0  0  0  0  0  0  0  0  0  0  0  0
   48.4866   56.0708   21.6628 N   0  0  0  0  0  0  0  0  0  0  0  0
   48.9737   55.8876   22.9620 C   0  0  0  0  0  0  0  0  0  0  0  0
   50.1695   55.0788   23.1877 N   0  0  0  0  0  0  0  0  0  0  0  0
   50.8170   54.4998   22.1291 C   0  0  0  0  0  0  0  0  0  0  0  0
   50.3191   54.6876   20.8250 C   0  0  0  0  0  0  0  0  0  0  0  0
   49.1269   55.4933   20.6009 C   0  0  0  0  0  0  0  0  0  0  0  0
   48.6086   55.6904   19.2466 N   0  0  0  0  0  0  0  0  0  0  0  0
   51.1804   53.9755   19.9129 N   0  0  0  0  0  0  0  0  0  0  0  0
   52.1979   53.3558   20.6759 C   0  0  0  0  0  0  0  0  0  0  0  0
   51.9914   53.6702   22.0501 N   0  0  0  0  0  0  0  0  0  0  0  0
  2  1  1  6  0  0  0
  2  3  1  0  0  0  0
  2  5  1  0  0  0  0
  3  4  1  0  0  0  0
  3 17  1  0  0  0  0
  5  6  1  0  0  0  0
  7  6  1  1  0  0  0
  7  8  1  0  0  0  0
  7  9  1  0  0  0  0
 10  9  1  6  0  0  0
 10 11  1  0  0  0  0
 10 12  1  0  0  0  0
 11 16  1  0  0  0  0
 12 13  1  1  0  0  0
 12 14  1  0  0  0  0
 14 15  1  1  0  0  0
 14 16  1  0  0  0  0
 16 27  1  6  0  0  0
 18 19  2  0  0  0  0
 18 23  1  0  0  0  0
 19 20  1  0  0  0  0
 20 21  2  0  0  0  0
 21 22  1  0  0  0  0
 21 27  1  0  0  0  0
 22 23  2  0  0  0  0
 22 25  1  0  0  0  0
 23 24  1  0  0  0  0
 25 26  2  0  0  0  0
 26 27  1  0  0  0  0
M  END
>  <CHROM.1>
-59.40597443,-66.87635363,164.33740265,-168.66641107,-178.98806387,55.65523205
166.62505202,52.41420132,51.21770768,21.78642958,0.81669660,0.89532364,-2.25431387

>  <Name>
ligand

>  <RI>
0

>  <Rbt.Current_Directory>
/home/itssahil/PROJECTS/Mol_Feturizer/New_Systems/rnas/3GX2

>  <Rbt.Executable>
rbdock ($Id: //depot/dev/client3/rdock/2013.1/src/exe/rbdock.cxx#4 $)

>  <Rbt.Library>
libRbt.so (2013.1, Build901 2013/11/27)

>  <Rbt.Parameter_File>
/export/apps/rDock/src/rDock_2013.1_src/data/scripts/dock_solv.prm

>  <Rbt.Receptor>
prm/blind_docking_100.prm

>  <SCORE>
-17.6403

>  <SCORE.INTER>
-14.6285

>  <SCORE.INTER.CONST>
1

>  <SCORE.INTER.POLAR>
0

>  <SCORE.INTER.ROT>
7

>  <SCORE.INTER.SOLV>
22.8805

>  <SCORE.INTER.VDW>
-25.6458

>  <SCORE.INTER.norm>
-0.541797

>  <SCORE.INTRA>
-3.01177

>  <SCORE.INTRA.DIHEDRAL>
-7.81861

>  <SCORE.INTRA.DIHEDRAL.0>
13.9704

>  <SCORE.INTRA.POLAR>
0

>  <SCORE.INTRA.POLAR.0>
0

>  <SCORE.INTRA.REPUL>
0

>  <SCORE.INTRA.REPUL.0>
0

>  <SCORE.INTRA.SOLV>
0.397271

>  <SCORE.INTRA.SOLV.lig_0>
-70.9758

>  <SCORE.INTRA.VDW>
0.698901

>  <SCORE.INTRA.VDW.0>
-2.70686

>  <SCORE.INTRA.norm>
-0.111547

>  <SCORE.RESTR>
0

>  <SCORE.RESTR.CAVITY>
0

>  <SCORE.RESTR.norm>
0

>  <SCORE.SYSTEM>
0

>  <SCORE.SYSTEM.CONST>
0

>  <SCORE.SYSTEM.DIHEDRAL>
0

>  <SCORE.SYSTEM.SOLV>
0

>  <SCORE.SYSTEM.norm>
0

>  <SCORE.heavy>
27

>  <SCORE.norm>
-0.653343

>  <RMSD>
12.398

$$$$
ligand
 OpenBabel11021811473D
libRbt.so/2013.1/901 2013/11/27
 27 29  0  0  0  0  0  0  0  0999 V2000
   53.2122   50.9093   23.3971 N   0  0  0  0  0  0  0  0  0  0  0  0
   52.3260   51.9563   23.9005 C   0  0  2  0  0  0  0  0  0  0  0  0
   51.6366   51.6062   25.2209 C   0  0  0  0  0  0  0  0  0  0  0  0
   51.9490   52.1968   26.2009 O   0  0  0  0  0  0  0  0  0  0  0  0
   51.3556   52.5372   22.8508 C   0  0  0  0  0  0  0  0  0  0  0  0
   51.9277   53.2401   21.5883 C   0  0  0  0  0  0  0  0  0  0  0  0
   50.8790   53.7102   20.5455 C   0  0  2  0  0  0  0  0  0  0  0  0
   51.4843   54.1585   19.2915 N   0  0  0  0  0  0  0  0  0  0  0  0
   49.8748   54.7428   21.1444 C   0  0  0  0  0  0  0  0  0  0  0  0
   48.3454   54.4085   21.1042 C   0  0  1  0  0  0  0  0  0  0  0  0
   47.3801   55.5017   21.0858 O   0  0  0  0  0  0  0  0  0  0  0  0
   47.8664   53.4476   19.9804 C   0  0  1  0  0  0  0  0  0  0  0  0
   48.3153   52.0869   20.0271 O   0  0  0  0  0  0  0  0  0  0  0  0
   46.3437   53.7425   19.8121 C   0  0  1  0  0  0  0  0  0  0  0  0
   45.4290   52.7612   20.2381 O   0  0  0  0  0  0  0  0  0  0  0  0
   46.2123   55.1655   20.3640 C   0  0  2  0  0  0  0  0  0  0  0  0
   50.3725   50.9854   25.1736 O   0  0  0  0  0  0  0  0  0  0  0  0
   42.4631   57.4671   17.1807 N   0  0  0  0  0  0  0  0  0  0  0  0
   42.2667   56.4713   18.1443 C   0  0  0  0  0  0  0  0  0  0  0  0
   43.4004   55.9646   18.9144 N   0  0  0  0  0  0  0  0  0  0  0  0
   44.6568   56.4638   18.6965 C   0  0  0  0  0  0  0  0  0  0  0  0
   44.8460   57.4646   17.7234 C   0  0  0  0  0  0  0  0  0  0  0  0
   43.7158   57.9684   16.9559 C   0  0  0  0  0  0  0  0  0  0  0  0
   43.9102   59.0088   15.9452 N   0  0  0  0  0  0  0  0  0  0  0  0
   46.2482   57.8028   17.6998 N   0  0  0  0  0  0  0  0  0  0  0  0
   46.9020   56.9980   18.6623 C   0  0  0  0  0  0  0  0  0  0  0  0
   45.9334   56.1637   19.2913 N   0  0  0  0  0  0  0  0  0  0  0  0
  2  1  1  6  0  0  0
  2  3  1  0  0  0  0
  2  5  1  0  0  0  0
  3  4  1  0  0  0  0
  3 17  1  0  0  0  0
  5  6  1  0  0  0  0
  7  6  1  1  0  0  0
  7  8  1  0  0  0  0
  7  9  1  0  0  0  0
 10  9  1  6  0  0  0
 10 11  1  0  0  0  0
 10 12  1  0  0  0  0
 11 16  1  0  0  0  0
 12 13  1  1  0  0  0
 12 14  1  0  0  0  0
 14 15  1  1  0  0  0
 14 16  1  0  0  0  0
 16 27  1  6  0  0  0
 18 19  2  0  0  0  0
 18 23  1  0  0  0  0
 19 20  1  0  0  0  0
 20 21  2  0  0  0  0
 21 22  1  0  0  0  0
 21 27  1  0  0  0  0
 22 23  2  0  0  0  0
 22 25  1  0  0  0  0
 23 24  1  0  0  0  0
 25 26  2  0  0  0  0
 26 27  1  0  0  0  0
M  END
>  <CHROM.1>
110.94722026,-60.99822688,176.17274445,-170.46182163,-122.09391517,-153.17507388
-155.22361589,47.83888512,54.53177940,20.51249394,-0.80626016,-0.00481840
-0.85704590

>  <Name>
ligand

>  <RI>
0

>  <Rbt.Current_Directory>
/home/itssahil/PROJECTS/Mol_Feturizer/New_Systems/rnas/3GX2

>  <Rbt.Executable>
rbdock ($Id: //depot/dev/client3/rdock/2013.1/src/exe/rbdock.cxx#4 $)

>  <Rbt.Library>
libRbt.so (2013.1, Build901 2013/11/27)

>  <Rbt.Parameter_File>
/export/apps/rDock/src/rDock_2013.1_src/data/scripts/dock_solv.prm

>  <Rbt.Receptor>
prm/blind_docking_80.prm

>  <SCORE>
-15.5864

>  <SCORE.INTER>
-16.059

>  <SCORE.INTER.CONST>
1

>  <SCORE.INTER.POLAR>
0

>  <SCORE.INTER.ROT>
7

>  <SCORE.INTER.SOLV>
16.2323

>  <SCORE.INTER.VDW>
-24.3834

>  <SCORE.INTER.norm>
-0.594776

>  <SCORE.INTRA>
0.472539

>  <SCORE.INTRA.DIHEDRAL>
-1.09979

>  <SCORE.INTRA.DIHEDRAL.0>
13.9704

>  <SCORE.INTRA.POLAR>
0

>  <SCORE.INTRA.POLAR.0>
0

>  <SCORE.INTRA.REPUL>
0

>  <SCORE.INTRA.REPUL.0>
0

>  <SCORE.INTRA.SOLV>
0.620138

>  <SCORE.INTRA.SOLV.lig_0>
-70.9758

>  <SCORE.INTRA.VDW>
0.712367

>  <SCORE.INTRA.VDW.0>
-2.70686

>  <SCORE.INTRA.norm>
0.0175014

>  <SCORE.RESTR>
0

>  <SCORE.RESTR.CAVITY>
0

>  <SCORE.RESTR.norm>
0

>  <SCORE.SYSTEM>
0

>  <SCORE.SYSTEM.CONST>
0

>  <SCORE.SYSTEM.DIHEDRAL>
0

>  <SCORE.SYSTEM.SOLV>
0

>  <SCORE.SYSTEM.norm>
0

>  <SCORE.heavy>
27

>  <SCORE.norm>
-0.577275

>  <RMSD>
12.434

$$$$
ligand
 OpenBabel11021811473D
libRbt.so/2013.1/901 2013/11/27
 27 29  0  0  0  0  0  0  0  0999 V2000
   47.1733   54.1108   22.6113 N   0  0  0  0  0  0  0  0  0  0  0  0
   47.3964   53.6844   23.9909 C   0  0  2  0  0  0  0  0  0  0  0  0
   46.2267   52.9077   24.5989 C   0  0  0  0  0  0  0  0  0  0  0  0
   45.2360   52.7771   23.9599 O   0  0  0  0  0  0  0  0  0  0  0  0
   47.9369   54.7871   24.9253 C   0  0  0  0  0  0  0  0  0  0  0  0
   49.1940   55.5974   24.5031 C   0  0  0  0  0  0  0  0  0  0  0  0
   50.4572   54.7582   24.1737 C   0  0  2  0  0  0  0  0  0  0  0  0
   51.6763   55.3075   24.7670 N   0  0  0  0  0  0  0  0  0  0  0  0
   50.5936   54.4743   22.6459 C   0  0  0  0  0  0  0  0  0  0  0  0
   51.6997   53.4746   22.1669 C   0  0  1  0  0  0  0  0  0  0  0  0
   51.7040   53.0336   20.7766 O   0  0  0  0  0  0  0  0  0  0  0  0
   53.1751   53.8702   22.4542 C   0  0  1  0  0  0  0  0  0  0  0  0
   53.6006   53.9190   23.8223 O   0  0  0  0  0  0  0  0  0  0  0  0
   54.0226   53.0654   21.4207 C   0  0  1  0  0  0  0  0  0  0  0  0
   54.8234   52.0117   21.8996 O   0  0  0  0  0  0  0  0  0  0  0  0
   53.0121   52.7786   20.3056 C   0  0  2  0  0  0  0  0  0  0  0  0
   46.4967   51.9888   25.6325 O   0  0  0  0  0  0  0  0  0  0  0  0
   51.1283   56.2883   16.6150 N   0  0  0  0  0  0  0  0  0  0  0  0
   50.4491   55.7742   17.7254 C   0  0  0  0  0  0  0  0  0  0  0  0
   51.1171   54.8311   18.6195 N   0  0  0  0  0  0  0  0  0  0  0  0
   52.4092   54.4496   18.3742 C   0  0  0  0  0  0  0  0  0  0  0  0
   53.0849   54.9703   17.2534 C   0  0  0  0  0  0  0  0  0  0  0  0
   52.4183   55.9096   16.3624 C   0  0  0  0  0  0  0  0  0  0  0  0
   53.1190   56.4524   15.1980 N   0  0  0  0  0  0  0  0  0  0  0  0
   54.4130   54.4074   17.2333 N   0  0  0  0  0  0  0  0  0  0  0  0
   54.5316   53.5429   18.3469 C   0  0  0  0  0  0  0  0  0  0  0  0
   53.3021   53.5570   19.0667 N   0  0  0  0  0  0  0  0  0  0  0  0
  2  1  1  6  0  0  0
  2  3  1  0  0  0  0
  2  5  1  0  0  0  0
  3  4  1  0  0  0  0
  3 17  1  0  0  0  0
  5  6  1  0  0  0  0
  7  6  1  6  0  0  0
  7  8  1  0  0  0  0
  7  9  1  0  0  0  0
 10  9  1  6  0  0  0
 10 11  1  0  0  0  0
 10 12  1  0  0  0  0
 11 16  1  0  0  0  0
 12 13  1  1  0  0  0
 12 14  1  0  0  0  0
 14 15  1  1  0  0  0
 14 16  1  0  0  0  0
 16 27  1  6  0  0  0
 18 19  2  0  0  0  0
 18 23  1  0  0  0  0
 19 20  1  0  0  0  0
 20 21  2  0  0  0  0
 21 22  1  0  0  0  0
 21 27  1  0  0  0  0
 22 23  2  0  0  0  0
 22 25  1  0  0  0  0
 23 24  1  0  0  0  0
 25 26  2  0  0  0  0
 26 27  1  0  0  0  0
M  END
>  <CHROM.1>
-3.96426159,-51.76512934,-55.60800468,-135.38902658,-171.55924576,170.24572951
-1.04900454,51.07126335,54.12913191,21.21123198,2.25596382,-0.15217795,1.86880080

>  <Name>
ligand

>  <RI>
0

>  <Rbt.Current_Directory>
/home/itssahil/PROJECTS/Mol_Feturizer/New_Systems/rnas/3GX2

>  <Rbt.Executable>
rbdock ($Id: //depot/dev/client3/rdock/2013.1/src/exe/rbdock.cxx#4 $)

>  <Rbt.Library>
libRbt.so (2013.1, Build901 2013/11/27)

>  <Rbt.Parameter_File>
/export/apps/rDock/src/rDock_2013.1_src/data/scripts/dock_solv.prm

>  <Rbt.Receptor>
prm/blind_docking_80.prm

>  <SCORE>
-5.34404

>  <SCORE.INTER>
-5.65569

>  <SCORE.INTER.CONST>
1

>  <SCORE.INTER.POLAR>
0

>  <SCORE.INTER.ROT>
7

>  <SCORE.INTER.SOLV>
13.9325

>  <SCORE.INTER.VDW>
-16.6813

>  <SCORE.INTER.norm>
-0.20947

>  <SCORE.INTRA>
0.311095

>  <SCORE.INTRA.DIHEDRAL>
-3.8638

>  <SCORE.INTRA.DIHEDRAL.0>
13.9704

>  <SCORE.INTRA.POLAR>
0

>  <SCORE.INTRA.POLAR.0>
0

>  <SCORE.INTRA.REPUL>
0

>  <SCORE.INTRA.REPUL.0>
0

>  <SCORE.INTRA.SOLV>
3.90418

>  <SCORE.INTRA.SOLV.lig_0>
-70.9758

>  <SCORE.INTRA.VDW>
0.290905

>  <SCORE.INTRA.VDW.0>
-2.70686

>  <SCORE.INTRA.norm>
0.011522

>  <SCORE.RESTR>
0.000561752

>  <SCORE.RESTR.CAVITY>
0.000561752

>  <SCORE.RESTR.norm>
2.08056e-05

>  <SCORE.SYSTEM>
0

>  <SCORE.SYSTEM.CONST>
0

>  <SCORE.SYSTEM.DIHEDRAL>
0

>  <SCORE.SYSTEM.SOLV>
0

>  <SCORE.SYSTEM.norm>
0

>  <SCORE.heavy>
27

>  <SCORE.norm>
-0.197927

>  <RMSD>
12.449

$$$$
ligand
 OpenBabel11021811473D
libRbt.so/2013.1/901 2013/11/27
 27 29  0  0  0  0  0  0  0  0999 V2000
   53.8676   49.5178   24.7072 N   0  0  0  0  0  0  0  0  0  0  0  0
   53.2385   50.2244   23.5936 C   0  0  2  0  0  0  0  0  0  0  0  0
   53.9769   50.0704   22.2624 C   0  0  0  0  0  0  0  0  0  0  0  0
   54.9273   50.7493   22.0561 O   0  0  0  0  0  0  0  0  0  0  0  0
   52.8460   51.6853   23.8984 C   0  0  0  0  0  0  0  0  0  0  0  0
   52.1962   52.5502   22.7827 C   0  0  0  0  0  0  0  0  0  0  0  0
   52.2245   54.0840   23.0169 C   0  0  2  0  0  0  0  0  0  0  0  0
   53.5062   54.5565   23.5403 N   0  0  0  0  0  0  0  0  0  0  0  0
   51.0029   54.5747   23.8536 C   0  0  0  0  0  0  0  0  0  0  0  0
   49.6662   54.9003   23.1053 C   0  0  1  0  0  0  0  0  0  0  0  0
   49.6816   55.8658   22.0123 O   0  0  0  0  0  0  0  0  0  0  0  0
   48.8627   53.6928   22.5466 C   0  0  1  0  0  0  0  0  0  0  0  0
   48.2873   52.7783   23.4889 O   0  0  0  0  0  0  0  0  0  0  0  0
   47.9667   54.2863   21.4158 C   0  0  1  0  0  0  0  0  0  0  0  0
   46.5792   54.3583   21.6407 O   0  0  0  0  0  0  0  0  0  0  0  0
   48.7194   55.5613   21.0226 C   0  0  2  0  0  0  0  0  0  0  0  0
   53.8378   48.8600   21.5543 O   0  0  0  0  0  0  0  0  0  0  0  0
   52.6972   53.3827   18.0363 N   0  0  0  0  0  0  0  0  0  0  0  0
   52.4571   53.1940   19.4022 C   0  0  0  0  0  0  0  0  0  0  0  0
   51.3309   53.8659   20.0466 N   0  0  0  0  0  0  0  0  0  0  0  0
   50.5071   54.6799   19.3158 C   0  0  0  0  0  0  0  0  0  0  0  0
   50.7569   54.8657   17.9421 C   0  0  0  0  0  0  0  0  0  0  0  0
   51.8799   54.1964   17.3007 C   0  0  0  0  0  0  0  0  0  0  0  0
   52.1405   54.3875   15.8735 N   0  0  0  0  0  0  0  0  0  0  0  0
   49.7510   55.7605   17.4240 N   0  0  0  0  0  0  0  0  0  0  0  0
   48.8961   56.1141   18.4943 C   0  0  0  0  0  0  0  0  0  0  0  0
   49.3465   55.4536   19.6736 N   0  0  0  0  0  0  0  0  0  0  0  0
  2  1  1  1  0  0  0
  2  3  1  0  0  0  0
  2  5  1  0  0  0  0
  3  4  1  0  0  0  0
  3 17  1  0  0  0  0
  5  6  1  0  0  0  0
  7  6  1  1  0  0  0
  7  8  1  0  0  0  0
  7  9  1  0  0  0  0
 10  9  1  6  0  0  0
 10 11  1  0  0  0  0
 10 12  1  0  0  0  0
 11 16  1  0  0  0  0
 12 13  1  1  0  0  0
 12 14  1  0  0  0  0
 14 15  1  1  0  0  0
 14 16  1  0  0  0  0
 16 27  1  6  0  0  0
 18 19  2  0  0  0  0
 18 23  1  0  0  0  0
 19 20  1  0  0  0  0
 20 21  2  0  0  0  0
 21 22  1  0  0  0  0
 21 27  1  0  0  0  0
 22 23  2  0  0  0  0
 22 25  1  0  0  0  0
 23 24  1  0  0  0  0
 25 26  2  0  0  0  0
 26 27  1  0  0  0  0
M  END
>  <CHROM.1>
-80.59000001,178.70389182,-162.33112446,42.43458418,-85.59555885,-55.52215973
50.08281306,51.15661226,53.43760474,21.18562927,0.79268768,-0.62054237,1.90972463

>  <Name>
ligand

>  <RI>
0

>  <Rbt.Current_Directory>
/home/itssahil/PROJECTS/Mol_Feturizer/New_Systems/rnas/3GX2

>  <Rbt.Executable>
rbdock ($Id: //depot/dev/client3/rdock/2013.1/src/exe/rbdock.cxx#4 $)

>  <Rbt.Library>
libRbt.so (2013.1, Build901 2013/11/27)

>  <Rbt.Parameter_File>
/export/apps/rDock/src/rDock_2013.1_src/data/scripts/dock_solv.prm

>  <Rbt.Receptor>
prm/blind_docking_80.prm

>  <SCORE>
-12.9187

>  <SCORE.INTER>
-10.0068

>  <SCORE.INTER.CONST>
1

>  <SCORE.INTER.POLAR>
0

>  <SCORE.INTER.ROT>
7

>  <SCORE.INTER.SOLV>
17.1483

>  <SCORE.INTER.VDW>
-20.654

>  <SCORE.INTER.norm>
-0.370623

>  <SCORE.INTRA>
-2.91188

>  <SCORE.INTRA.DIHEDRAL>
-4.6622

>  <SCORE.INTRA.DIHEDRAL.0>
13.9704

>  <SCORE.INTRA.POLAR>
0

>  <SCORE.INTRA.POLAR.0>
0

>  <SCORE.INTRA.REPUL>
0

>  <SCORE.INTRA.REPUL.0>
0

>  <SCORE.INTRA.SOLV>
0.298566

>  <SCORE.INTRA.SOLV.lig_0>
-70.9758

>  <SCORE.INTRA.VDW>
-0.730065

>  <SCORE.INTRA.VDW.0>
-2.70686

>  <SCORE.INTRA.norm>
-0.107847

>  <SCORE.RESTR>
0

>  <SCORE.RESTR.CAVITY>
0

>  <SCORE.RESTR.norm>
0

>  <SCORE.SYSTEM>
0

>  <SCORE.SYSTEM.CONST>
0

>  <SCORE.SYSTEM.DIHEDRAL>
0

>  <SCORE.SYSTEM.SOLV>
0

>  <SCORE.SYSTEM.norm>
0

>  <SCORE.heavy>
27

>  <SCORE.norm>
-0.478471

>  <RMSD>
12.458

$$$$
ligand
 OpenBabel11021811473D
libRbt.so/2013.1/901 2013/11/27
 27 29  0  0  0  0  0  0  0  0999 V2000
   48.3337   55.7083   25.3389 N   0  0  0  0  0  0  0  0  0  0  0  0
   48.7675   54.4568   24.7221 C   0  0  2  0  0  0  0  0  0  0  0  0
   47.6197   53.5157   24.3504 C   0  0  0  0  0  0  0  0  0  0  0  0
   47.2227   53.5150   23.2327 O   0  0  0  0  0  0  0  0  0  0  0  0
   49.9175   53.7406   25.4609 C   0  0  0  0  0  0  0  0  0  0  0  0
   51.3173   54.4122   25.5283 C   0  0  0  0  0  0  0  0  0  0  0  0
   52.1277   54.4148   24.2048 C   0  0  2  0  0  0  0  0  0  0  0  0
   53.5676   54.5593   24.4191 N   0  0  0  0  0  0  0  0  0  0  0  0
   51.5579   55.4308   23.1673 C   0  0  0  0  0  0  0  0  0  0  0  0
   50.4024   54.9630   22.2194 C   0  0  1  0  0  0  0  0  0  0  0  0
   50.0434   55.7926   21.0748 O   0  0  0  0  0  0  0  0  0  0  0  0
   50.5093   53.5250   21.6394 C   0  0  1  0  0  0  0  0  0  0  0  0
   50.4068   52.4253   22.5534 O   0  0  0  0  0  0  0  0  0  0  0  0
   49.6217   53.5349   20.3564 C   0  0  1  0  0  0  0  0  0  0  0  0
   48.4167   52.8081   20.3802 O   0  0  0  0  0  0  0  0  0  0  0  0
   49.5824   55.0204   19.9844 C   0  0  2  0  0  0  0  0  0  0  0  0
   47.3978   52.3788   25.1528 O   0  0  0  0  0  0  0  0  0  0  0  0
   52.5377   52.9933   15.9046 N   0  0  0  0  0  0  0  0  0  0  0  0
   51.9358   52.2874   16.9525 C   0  0  0  0  0  0  0  0  0  0  0  0
   51.1713   53.0023   17.9721 N   0  0  0  0  0  0  0  0  0  0  0  0
   51.0404   54.3637   17.9038 C   0  0  0  0  0  0  0  0  0  0  0  0
   51.6509   55.0667   16.8469 C   0  0  0  0  0  0  0  0  0  0  0  0
   52.4133   54.3536   15.8316 C   0  0  0  0  0  0  0  0  0  0  0  0
   53.0475   55.0821   14.7322 N   0  0  0  0  0  0  0  0  0  0  0  0
   51.3585   56.4689   17.0175 N   0  0  0  0  0  0  0  0  0  0  0  0
   50.5708   56.6060   18.1847 C   0  0  0  0  0  0  0  0  0  0  0  0
   50.3614   55.3135   18.7466 N   0  0  0  0  0  0  0  0  0  0  0  0
  2  1  1  1  0  0  0
  2  3  1  0  0  0  0
  2  5  1  0  0  0  0
  3  4  1  0  0  0  0
  3 17  1  0  0  0  0
  5  6  1  0  0  0  0
  7  6  1  1  0  0  0
  7  8  1  0  0  0  0
  7  9  1  0  0  0  0
 10  9  1  6  0  0  0
 10 11  1  0  0  0  0
 10 12  1  0  0  0  0
 11 16  1  0  0  0  0
 12 13  1  1  0  0  0
 12 14  1  0  0  0  0
 14 15  1  1  0  0  0
 14 16  1  0  0  0  0
 16 27  1  6  0  0  0
 18 19  2  0  0  0  0
 18 23  1  0  0  0  0
 19 20  1  0  0  0  0
 20 21  2  0  0  0  0
 21 22  1  0  0  0  0
 21 27  1  0  0  0  0
 22 23  2  0  0  0  0
 22 25  1  0  0  0  0
 23 24  1  0  0  0  0
 25 26  2  0  0  0  0
 26 27  1  0  0  0  0
M  END
>  <CHROM.1>
97.42623141,-65.69599787,-72.70620973,-157.49696556,-86.48004877,-167.70298525
126.23145903,50.41453217,54.25728523,20.99826246,-1.89635032,-0.38896560
-1.63522611

>  <Name>
ligand

>  <RI>
0

>  <Rbt.Current_Directory>
/home/itssahil/PROJECTS/Mol_Feturizer/New_Systems/rnas/3GX2

>  <Rbt.Executable>
rbdock ($Id: //depot/dev/client3/rdock/2013.1/src/exe/rbdock.cxx#4 $)

>  <Rbt.Library>
libRbt.so (2013.1, Build901 2013/11/27)

>  <Rbt.Parameter_File>
/export/apps/rDock/src/rDock_2013.1_src/data/scripts/dock_solv.prm

>  <Rbt.Receptor>
prm/blind_docking_100.prm

>  <SCORE>
-8.40616

>  <SCORE.INTER>
-6.8062

>  <SCORE.INTER.CONST>
1

>  <SCORE.INTER.POLAR>
0

>  <SCORE.INTER.ROT>
7

>  <SCORE.INTER.SOLV>
16.6379

>  <SCORE.INTER.VDW>
-18.3501

>  <SCORE.INTER.norm>
-0.252081

>  <SCORE.INTRA>
-1.60593

>  <SCORE.INTRA.DIHEDRAL>
-4.33417

>  <SCORE.INTRA.DIHEDRAL.0>
13.9704

>  <SCORE.INTRA.POLAR>
0

>  <SCORE.INTRA.POLAR.0>
0

>  <SCORE.INTRA.REPUL>
0

>  <SCORE.INTRA.REPUL.0>
0

>  <SCORE.INTRA.SOLV>
2.83881

>  <SCORE.INTRA.SOLV.lig_0>
-70.9758

>  <SCORE.INTRA.VDW>
-0.858253

>  <SCORE.INTRA.VDW.0>
-2.70686

>  <SCORE.INTRA.norm>
-0.0594791

>  <SCORE.RESTR>
0.00597124

>  <SCORE.RESTR.CAVITY>
0.00597124

>  <SCORE.RESTR.norm>
0.000221157

>  <SCORE.SYSTEM>
0

>  <SCORE.SYSTEM.CONST>
0

>  <SCORE.SYSTEM.DIHEDRAL>
0

>  <SCORE.SYSTEM.SOLV>
0

>  <SCORE.SYSTEM.norm>
0

>  <SCORE.heavy>
27

>  <SCORE.norm>
-0.311339

>  <RMSD>
12.508

$$$$
ligand
 OpenBabel11021811473D
libRbt.so/2013.1/901 2013/11/27
 27 29  0  0  0  0  0  0  0  0999 V2000
   49.8605   52.0349   28.2948 N   0  0  0  0  0  0  0  0  0  0  0  0
   50.1288   52.3776   26.9000 C   0  0  2  0  0  0  0  0  0  0  0  0
   51.5684   52.1060   26.4584 C   0  0  0  0  0  0  0  0  0  0  0  0
   52.4484   52.6985   26.9888 O   0  0  0  0  0  0  0  0  0  0  0  0
   49.6202   53.7697   26.4705 C   0  0  0  0  0  0  0  0  0  0  0  0
   49.8167   54.2346   25.0007 C   0  0  0  0  0  0  0  0  0  0  0  0
   49.1635   55.5928   24.6306 C   0  0  2  0  0  0  0  0  0  0  0  0
   47.7492   55.6632   24.9977 N   0  0  0  0  0  0  0  0  0  0  0  0
   49.4315   55.9901   23.1461 C   0  0  0  0  0  0  0  0  0  0  0  0
   48.8197   55.1006   22.0117 C   0  0  1  0  0  0  0  0  0  0  0  0
   48.5922   55.6861   20.6954 O   0  0  0  0  0  0  0  0  0  0  0  0
   49.5303   53.7496   21.7191 C   0  0  1  0  0  0  0  0  0  0  0  0
   49.4935   52.7401   22.7364 O   0  0  0  0  0  0  0  0  0  0  0  0
   49.1172   53.3780   20.2613 C   0  0  1  0  0  0  0  0  0  0  0  0
   48.2432   52.2900   20.0785 O   0  0  0  0  0  0  0  0  0  0  0  0
   48.7434   54.7363   19.6596 C   0  0  2  0  0  0  0  0  0  0  0  0
   51.8564   50.8793   25.8276 O   0  0  0  0  0  0  0  0  0  0  0  0
   52.4534   53.2871   15.9687 N   0  0  0  0  0  0  0  0  0  0  0  0
   51.6803   52.4440   16.7752 C   0  0  0  0  0  0  0  0  0  0  0  0
   50.7233   53.0126   17.7217 N   0  0  0  0  0  0  0  0  0  0  0  0
   50.5793   54.3708   17.8207 C   0  0  0  0  0  0  0  0  0  0  0  0
   51.3627   55.2121   17.0067 C   0  0  0  0  0  0  0  0  0  0  0  0
   52.3167   54.6448   16.0642 C   0  0  0  0  0  0  0  0  0  0  0  0
   53.1307   55.5172   15.2170 N   0  0  0  0  0  0  0  0  0  0  0  0
   51.0143   56.5780   17.3132 N   0  0  0  0  0  0  0  0  0  0  0  0
   50.0188   56.5538   18.3182 C   0  0  0  0  0  0  0  0  0  0  0  0
   49.7346   55.1963   18.6443 N   0  0  0  0  0  0  0  0  0  0  0  0
  2  1  1  1  0  0  0
  2  3  1  0  0  0  0
  2  5  1  0  0  0  0
  3  4  1  0  0  0  0
  3 17  1  0  0  0  0
  5  6  1  0  0  0  0
  7  6  1  6  0  0  0
  7  8  1  0  0  0  0
  7  9  1  0  0  0  0
 10  9  1  1  0  0  0
 10 11  1  0  0  0  0
 10 12  1  0  0  0  0
 11 16  1  0  0  0  0
 12 13  1  1  0  0  0
 12 14  1  0  0  0  0
 14 15  1  1  0  0  0
 14 16  1  0  0  0  0
 16 27  1  6  0  0  0
 18 19  2  0  0  0  0
 18 23  1  0  0  0  0
 19 20  1  0  0  0  0
 20 21  2  0  0  0  0
 21 22  1  0  0  0  0
 21 27  1  0  0  0  0
 22 23  2  0  0  0  0
 22 25  1  0  0  0  0
 23 24  1  0  0  0  0
 25 26  2  0  0  0  0
 26 27  1  0  0  0  0
M  END
>  <CHROM.1>
-62.59458860,-178.56933017,174.79070114,-51.71326367,65.28099888,156.13560963
150.69533597,50.25060464,54.02425261,21.49161209,-1.71274812,0.79648171,-1.29321820

>  <Name>
ligand

>  <RI>
0

>  <Rbt.Current_Directory>
/home/itssahil/PROJECTS/Mol_Feturizer/New_Systems/rnas/3GX2

>  <Rbt.Executable>
rbdock ($Id: //depot/dev/client3/rdock/2013.1/src/exe/rbdock.cxx#4 $)

>  <Rbt.Library>
libRbt.so (2013.1, Build901 2013/11/27)

>  <Rbt.Parameter_File>
/export/apps/rDock/src/rDock_2013.1_src/data/scripts/dock_solv.prm

>  <Rbt.Receptor>
prm/blind_docking_80.prm

>  <SCORE>
-10.3039

>  <SCORE.INTER>
-8.65841

>  <SCORE.INTER.CONST>
1

>  <SCORE.INTER.POLAR>
0

>  <SCORE.INTER.ROT>
7

>  <SCORE.INTER.SOLV>
18.6016

>  <SCORE.INTER.VDW>
-20.2395

>  <SCORE.INTER.norm>
-0.320682

>  <SCORE.INTRA>
-1.64553

>  <SCORE.INTRA.DIHEDRAL>
-7.12645

>  <SCORE.INTRA.DIHEDRAL.0>
13.9704

>  <SCORE.INTRA.POLAR>
0

>  <SCORE.INTRA.POLAR.0>
0

>  <SCORE.INTRA.REPUL>
0

>  <SCORE.INTRA.REPUL.0>
0

>  <SCORE.INTRA.SOLV>
1.30764

>  <SCORE.INTRA.SOLV.lig_0>
-70.9758

>  <SCORE.INTRA.VDW>
1.26388

>  <SCORE.INTRA.VDW.0>
-2.70686

>  <SCORE.INTRA.norm>
-0.0609455

>  <SCORE.RESTR>
0

>  <SCORE.RESTR.CAVITY>
0

>  <SCORE.RESTR.norm>
0

>  <SCORE.SYSTEM>
0

>  <SCORE.SYSTEM.CONST>
0

>  <SCORE.SYSTEM.DIHEDRAL>
0

>  <SCORE.SYSTEM.SOLV>
0

>  <SCORE.SYSTEM.norm>
0

>  <SCORE.heavy>
27

>  <SCORE.norm>
-0.381627

>  <RMSD>
12.541

$$$$
ligand
 OpenBabel11021811473D
libRbt.so/2013.1/901 2013/11/27
 27 29  0  0  0  0  0  0  0  0999 V2000
   52.8645   52.7244   22.4937 N   0  0  0  0  0  0  0  0  0  0  0  0
   52.0054   53.8006   22.0053 C   0  0  2  0  0  0  0  0  0  0  0  0
   50.8773   54.1809   22.9666 C   0  0  0  0  0  0  0  0  0  0  0  0
   50.2939   53.3161   23.5310 O   0  0  0  0  0  0  0  0  0  0  0  0
   51.5230   53.6281   20.5498 C   0  0  0  0  0  0  0  0  0  0  0  0
   50.8670   54.8302   19.8151 C   0  0  0  0  0  0  0  0  0  0  0  0
   49.3317   54.7370   19.6085 C   0  0  2  0  0  0  0  0  0  0  0  0
   48.8092   55.7910   18.7389 N   0  0  0  0  0  0  0  0  0  0  0  0
   48.5616   54.6201   20.9600 C   0  0  0  0  0  0  0  0  0  0  0  0
   47.1842   53.8752   20.9739 C   0  0  1  0  0  0  0  0  0  0  0  0
   45.9639   54.6434   21.1930 O   0  0  0  0  0  0  0  0  0  0  0  0
   46.8618   52.9734   19.7498 C   0  0  1  0  0  0  0  0  0  0  0  0
   47.6633   51.8012   19.5525 O   0  0  0  0  0  0  0  0  0  0  0  0
   45.3070   52.8449   19.7352 C   0  0  1  0  0  0  0  0  0  0  0  0
   44.7433   51.5981   20.0650 O   0  0  0  0  0  0  0  0  0  0  0  0
   44.8582   54.0879   20.5099 C   0  0  2  0  0  0  0  0  0  0  0  0
   50.8754   55.4772   23.5192 O   0  0  0  0  0  0  0  0  0  0  0  0
   45.5417   58.3810   17.2559 N   0  0  0  0  0  0  0  0  0  0  0  0
   46.5297   57.6722   17.9490 C   0  0  0  0  0  0  0  0  0  0  0  0
   46.1611   56.5331   18.7867 N   0  0  0  0  0  0  0  0  0  0  0  0
   44.8492   56.1554   18.8942 C   0  0  0  0  0  0  0  0  0  0  0  0
   43.8610   56.8754   18.1948 C   0  0  0  0  0  0  0  0  0  0  0  0
   44.2290   58.0110   17.3608 C   0  0  0  0  0  0  0  0  0  0  0  0
   43.2039   58.7596   16.6327 N   0  0  0  0  0  0  0  0  0  0  0  0
   42.5828   56.2727   18.4842 N   0  0  0  0  0  0  0  0  0  0  0  0
   42.8072   55.1877   19.3639 C   0  0  0  0  0  0  0  0  0  0  0  0
   44.2044   55.0976   19.6280 N   0  0  0  0  0  0  0  0  0  0  0  0
  2  1  1  1  0  0  0
  2  3  1  0  0  0  0
  2  5  1  0  0  0  0
  3  4  1  0  0  0  0
  3 17  1  0  0  0  0
  5  6  1  0  0  0  0
  7  6  1  1  0  0  0
  7  8  1  0  0  0  0
  7  9  1  0  0  0  0
 10  9  1  6  0  0  0
 10 11  1  0  0  0  0
 10 12  1  0  0  0  0
 11 16  1  0  0  0  0
 12 13  1  1  0  0  0
 12 14  1  0  0  0  0
 14 15  1  1  0  0  0
 14 16  1  0  0  0  0
 16 27  1  6  0  0  0
 18 19  2  0  0  0  0
 18 23  1  0  0  0  0
 19 20  1  0  0  0  0
 20 21  2  0  0  0  0
 21 22  1  0  0  0  0
 21 27  1  0  0  0  0
 22 23  2  0  0  0  0
 22 25  1  0  0  0  0
 23 24  1  0  0  0  0
 25 26  2  0  0  0  0
 26 27  1  0  0  0  0
M  END
>  <CHROM.1>
-41.27319009,-166.92823858,-106.91002408,-171.23060987,-151.83061563,-110.69547377
34.74892659,47.20785400,54.88842655,20.01585263,-0.53984872,-0.28039755,-0.48693197

>  <Name>
ligand

>  <RI>
0

>  <Rbt.Current_Directory>
/home/itssahil/PROJECTS/Mol_Feturizer/New_Systems/rnas/3GX2

>  <Rbt.Executable>
rbdock ($Id: //depot/dev/client3/rdock/2013.1/src/exe/rbdock.cxx#4 $)

>  <Rbt.Library>
libRbt.so (2013.1, Build901 2013/11/27)

>  <Rbt.Parameter_File>
/export/apps/rDock/src/rDock_2013.1_src/data/scripts/dock_solv.prm

>  <Rbt.Receptor>
prm/blind_docking_80.prm

>  <SCORE>
-12.8134

>  <SCORE.INTER>
-15.6867

>  <SCORE.INTER.CONST>
1

>  <SCORE.INTER.POLAR>
0

>  <SCORE.INTER.ROT>
7

>  <SCORE.INTER.SOLV>
21.1313

>  <SCORE.INTER.VDW>
-25.7682

>  <SCORE.INTER.norm>
-0.58099

>  <SCORE.INTRA>
2.87337

>  <SCORE.INTRA.DIHEDRAL>
4.32852

>  <SCORE.INTRA.DIHEDRAL.0>
13.9704

>  <SCORE.INTRA.POLAR>
0

>  <SCORE.INTRA.POLAR.0>
0

>  <SCORE.INTRA.REPUL>
0

>  <SCORE.INTRA.REPUL.0>
0

>  <SCORE.INTRA.SOLV>
2.4676

>  <SCORE.INTRA.SOLV.lig_0>
-70.9758

>  <SCORE.INTRA.VDW>
-0.524693

>  <SCORE.INTRA.VDW.0>
-2.70686

>  <SCORE.INTRA.norm>
0.106421

>  <SCORE.RESTR>
0

>  <SCORE.RESTR.CAVITY>
0

>  <SCORE.RESTR.norm>
0

>  <SCORE.SYSTEM>
0

>  <SCORE.SYSTEM.CONST>
0

>  <SCORE.SYSTEM.DIHEDRAL>
0

>  <SCORE.SYSTEM.SOLV>
0

>  <SCORE.SYSTEM.norm>
0

>  <SCORE.heavy>
27

>  <SCORE.norm>
-0.474569

>  <RMSD>
12.555

$$$$
ligand
 OpenBabel11021811473D
libRbt.so/2013.1/901 2013/11/27
 27 29  0  0  0  0  0  0  0  0999 V2000
   54.5756   49.7961   24.3498 N   0  0  0  0  0  0  0  0  0  0  0  0
   54.3785   50.0124   22.9183 C   0  0  2  0  0  0  0  0  0  0  0  0
   54.6701   48.7817   22.0571 C   0  0  0  0  0  0  0  0  0  0  0  0
   54.3422   48.7932   20.9173 O   0  0  0  0  0  0  0  0  0  0  0  0
   55.0268   51.2997   22.3672 C   0  0  0  0  0  0  0  0  0  0  0  0
   54.6752   51.7773   20.9307 C   0  0  0  0  0  0  0  0  0  0  0  0
   55.3193   53.1187   20.4902 C   0  0  2  0  0  0  0  0  0  0  0  0
   55.0847   54.2031   21.4436 N   0  0  0  0  0  0  0  0  0  0  0  0
   54.9433   53.4994   19.0249 C   0  0  0  0  0  0  0  0  0  0  0  0
   53.4426   53.7974   18.6912 C   0  0  1  0  0  0  0  0  0  0  0  0
   52.4040   52.9640   19.2861 O   0  0  0  0  0  0  0  0  0  0  0  0
   52.9495   55.2540   18.9171 C   0  0  1  0  0  0  0  0  0  0  0  0
   53.4954   56.2826   18.0810 O   0  0  0  0  0  0  0  0  0  0  0  0
   51.4014   55.1415   19.0748 C   0  0  1  0  0  0  0  0  0  0  0  0
   50.5927   55.6477   18.0400 O   0  0  0  0  0  0  0  0  0  0  0  0
   51.2119   53.6872   19.5176 C   0  0  2  0  0  0  0  0  0  0  0  0
   55.7007   47.9095   22.4607 O   0  0  0  0  0  0  0  0  0  0  0  0
   48.2743   55.8551   23.5373 N   0  0  0  0  0  0  0  0  0  0  0  0
   48.4029   56.3278   22.2263 C   0  0  0  0  0  0  0  0  0  0  0  0
   49.2436   55.6116   21.2696 N   0  0  0  0  0  0  0  0  0  0  0  0
   49.9059   54.4759   21.6526 C   0  0  0  0  0  0  0  0  0  0  0  0
   49.7724   54.0080   22.9745 C   0  0  0  0  0  0  0  0  0  0  0  0
   48.9350   54.7227   23.9276 C   0  0  0  0  0  0  0  0  0  0  0  0
   48.7944   54.2377   25.3010 N   0  0  0  0  0  0  0  0  0  0  0  0
   50.5676   52.8116   23.1054 N   0  0  0  0  0  0  0  0  0  0  0  0
   51.1824   52.5637   21.8556 C   0  0  0  0  0  0  0  0  0  0  0  0
   50.7835   53.5820   20.9425 N   0  0  0  0  0  0  0  0  0  0  0  0
  2  1  1  1  0  0  0
  2  3  1  0  0  0  0
  2  5  1  0  0  0  0
  3  4  1  0  0  0  0
  3 17  1  0  0  0  0
  5  6  1  0  0  0  0
  7  6  1  1  0  0  0
  7  8  1  0  0  0  0
  7  9  1  0  0  0  0
 10  9  1  1  0  0  0
 10 11  1  0  0  0  0
 10 12  1  0  0  0  0
 11 16  1  0  0  0  0
 12 13  1  6  0  0  0
 12 14  1  0  0  0  0
 14 15  1  6  0  0  0
 14 16  1  0  0  0  0
 16 27  1  1  0  0  0
 18 19  2  0  0  0  0
 18 23  1  0  0  0  0
 19 20  1  0  0  0  0
 20 21  2  0  0  0  0
 21 22  1  0  0  0  0
 21 27  1  0  0  0  0
 22 23  2  0  0  0  0
 22 25  1  0  0  0  0
 23 24  1  0  0  0  0
 25 26  2  0  0  0  0
 26 27  1  0  0  0  0
M  END
>  <CHROM.1>
168.39778144,-168.87432215,177.01563504,-52.31656712,64.28303415,-40.52214040
158.90011910,52.30323443,53.14137607,21.25511425,0.52056381,-0.62888251,2.27891534

>  <Name>
ligand

>  <RI>
0

>  <Rbt.Current_Directory>
/home/itssahil/PROJECTS/Mol_Feturizer/New_Systems/rnas/3GX2

>  <Rbt.Executable>
rbdock ($Id: //depot/dev/client3/rdock/2013.1/src/exe/rbdock.cxx#4 $)

>  <Rbt.Library>
libRbt.so (2013.1, Build901 2013/11/27)

>  <Rbt.Parameter_File>
/export/apps/rDock/src/rDock_2013.1_src/data/scripts/dock_solv.prm

>  <Rbt.Receptor>
prm/blind_docking_100.prm

>  <SCORE>
-10.6532

>  <SCORE.INTER>
-7.97424

>  <SCORE.INTER.CONST>
1

>  <SCORE.INTER.POLAR>
0

>  <SCORE.INTER.ROT>
7

>  <SCORE.INTER.SOLV>
12.6302

>  <SCORE.INTER.VDW>
-17.7929

>  <SCORE.INTER.norm>
-0.295342

>  <SCORE.INTRA>
-2.68434

>  <SCORE.INTRA.DIHEDRAL>
-7.25782

>  <SCORE.INTRA.DIHEDRAL.0>
13.9704

>  <SCORE.INTRA.POLAR>
0

>  <SCORE.INTRA.POLAR.0>
0

>  <SCORE.INTRA.REPUL>
0

>  <SCORE.INTRA.REPUL.0>
0

>  <SCORE.INTRA.SOLV>
1.97662

>  <SCORE.INTRA.SOLV.lig_0>
-70.9758

>  <SCORE.INTRA.VDW>
-0.0437387

>  <SCORE.INTRA.VDW.0>
-2.70686

>  <SCORE.INTRA.norm>
-0.0994199

>  <SCORE.RESTR>
0.00535011

>  <SCORE.RESTR.CAVITY>
0.00535011

>  <SCORE.RESTR.norm>
0.000198152

>  <SCORE.SYSTEM>
0

>  <SCORE.SYSTEM.CONST>
0

>  <SCORE.SYSTEM.DIHEDRAL>
0

>  <SCORE.SYSTEM.SOLV>
0

>  <SCORE.SYSTEM.norm>
0

>  <SCORE.heavy>
27

>  <SCORE.norm>
-0.394564

>  <RMSD>
12.590

$$$$
ligand
 OpenBabel11021811473D
libRbt.so/2013.1/901 2013/11/27
 27 29  0  0  0  0  0  0  0  0999 V2000
   48.1242   54.9890   25.1036 N   0  0  0  0  0  0  0  0  0  0  0  0
   48.1772   53.9246   24.1040 C   0  0  2  0  0  0  0  0  0  0  0  0
   48.1044   52.5141   24.6927 C   0  0  0  0  0  0  0  0  0  0  0  0
   48.8932   52.2011   25.5213 O   0  0  0  0  0  0  0  0  0  0  0  0
   49.2989   54.0819   23.0560 C   0  0  0  0  0  0  0  0  0  0  0  0
   49.2435   55.2651   22.0499 C   0  0  0  0  0  0  0  0  0  0  0  0
   48.3906   55.0264   20.7756 C   0  0  2  0  0  0  0  0  0  0  0  0
   47.0047   54.6679   21.0769 N   0  0  0  0  0  0  0  0  0  0  0  0
   49.0774   54.0373   19.7840 C   0  0  0  0  0  0  0  0  0  0  0  0
   50.5289   54.3588   19.2921 C   0  0  1  0  0  0  0  0  0  0  0  0
   51.6235   54.3490   20.2560 O   0  0  0  0  0  0  0  0  0  0  0  0
   51.0619   53.5305   18.0897 C   0  0  1  0  0  0  0  0  0  0  0  0
   50.4288   53.7152   16.8168 O   0  0  0  0  0  0  0  0  0  0  0  0
   52.6163   53.6212   18.1881 C   0  0  1  0  0  0  0  0  0  0  0  0
   53.2974   54.3793   17.2174 O   0  0  0  0  0  0  0  0  0  0  0  0
   52.8429   53.9408   19.6691 C   0  0  2  0  0  0  0  0  0  0  0  0
   46.8804   51.8195   24.6203 O   0  0  0  0  0  0  0  0  0  0  0  0
   52.5372   50.6959   24.0125 N   0  0  0  0  0  0  0  0  0  0  0  0
   51.6806   51.7501   23.6754 C   0  0  0  0  0  0  0  0  0  0  0  0
   51.9162   52.5236   22.4583 N   0  0  0  0  0  0  0  0  0  0  0  0
   52.9740   52.2180   21.6442 C   0  0  0  0  0  0  0  0  0  0  0  0
   53.8324   51.1567   21.9917 C   0  0  0  0  0  0  0  0  0  0  0  0
   53.5974   50.3867   23.2052 C   0  0  0  0  0  0  0  0  0  0  0  0
   54.4875   49.2832   23.5675 N   0  0  0  0  0  0  0  0  0  0  0  0
   54.8495   51.0554   20.9739 N   0  0  0  0  0  0  0  0  0  0  0  0
   54.5999   52.0635   20.0132 C   0  0  0  0  0  0  0  0  0  0  0  0
   53.4417   52.7927   20.4095 N   0  0  0  0  0  0  0  0  0  0  0  0
  2  1  1  1  0  0  0
  2  3  1  0  0  0  0
  2  5  1  0  0  0  0
  3  4  1  0  0  0  0
  3 17  1  0  0  0  0
  5  6  1  0  0  0  0
  7  6  1  1  0  0  0
  7  8  1  0  0  0  0
  7  9  1  0  0  0  0
 10  9  1  1  0  0  0
 10 11  1  0  0  0  0
 10 12  1  0  0  0  0
 11 16  1  0  0  0  0
 12 13  1  6  0  0  0
 12 14  1  0  0  0  0
 14 15  1  6  0  0  0
 14 16  1  0  0  0  0
 16 27  1  1  0  0  0
 18 19  2  0  0  0  0
 18 23  1  0  0  0  0
 19 20  1  0  0  0  0
 20 21  2  0  0  0  0
 21 22  1  0  0  0  0
 21 27  1  0  0  0  0
 22 23  2  0  0  0  0
 22 25  1  0  0  0  0
 23 24  1  0  0  0  0
 25 26  2  0  0  0  0
 26 27  1  0  0  0  0
M  END
>  <CHROM.1>
-55.24334154,-66.33393448,-84.82022941,56.73909149,-55.27680294,65.53276010
-6.34155537,51.02484822,53.00763881,21.54897889,2.49420219,-0.46719236,2.01513138

>  <Name>
ligand

>  <RI>
0

>  <Rbt.Current_Directory>
/home/itssahil/PROJECTS/Mol_Feturizer/New_Systems/rnas/3GX2

>  <Rbt.Executable>
rbdock ($Id: //depot/dev/client3/rdock/2013.1/src/exe/rbdock.cxx#4 $)

>  <Rbt.Library>
libRbt.so (2013.1, Build901 2013/11/27)

>  <Rbt.Parameter_File>
/export/apps/rDock/src/rDock_2013.1_src/data/scripts/dock_solv.prm

>  <Rbt.Receptor>
prm/blind_docking_80.prm

>  <SCORE>
-13.779

>  <SCORE.INTER>
-10.5837

>  <SCORE.INTER.CONST>
1

>  <SCORE.INTER.POLAR>
0

>  <SCORE.INTER.ROT>
7

>  <SCORE.INTER.SOLV>
13.8523

>  <SCORE.INTER.VDW>
-19.9399

>  <SCORE.INTER.norm>
-0.39199

>  <SCORE.INTRA>
-3.19531

>  <SCORE.INTRA.DIHEDRAL>
-6.82666

>  <SCORE.INTRA.DIHEDRAL.0>
13.9704

>  <SCORE.INTRA.POLAR>
0

>  <SCORE.INTRA.POLAR.0>
0

>  <SCORE.INTRA.REPUL>
0

>  <SCORE.INTRA.REPUL.0>
0

>  <SCORE.INTRA.SOLV>
1.65656

>  <SCORE.INTRA.SOLV.lig_0>
-70.9758

>  <SCORE.INTRA.VDW>
-0.610259

>  <SCORE.INTRA.VDW.0>
-2.70686

>  <SCORE.INTRA.norm>
-0.118345

>  <SCORE.RESTR>
0

>  <SCORE.RESTR.CAVITY>
0

>  <SCORE.RESTR.norm>
0

>  <SCORE.SYSTEM>
0

>  <SCORE.SYSTEM.CONST>
0

>  <SCORE.SYSTEM.DIHEDRAL>
0

>  <SCORE.SYSTEM.SOLV>
0

>  <SCORE.SYSTEM.norm>
0

>  <SCORE.heavy>
27

>  <SCORE.norm>
-0.510335

>  <RMSD>
12.631

$$$$
ligand
 OpenBabel11021811473D
libRbt.so/2013.1/901 2013/11/27
 27 29  0  0  0  0  0  0  0  0999 V2000
   52.7093   54.2004   15.4578 N   0  0  0  0  0  0  0  0  0  0  0  0
   53.1543   55.3032   16.3068 C   0  0  2  0  0  0  0  0  0  0  0  0
   53.8992   54.8570   17.5667 C   0  0  0  0  0  0  0  0  0  0  0  0
   54.1012   55.6541   18.4215 O   0  0  0  0  0  0  0  0  0  0  0  0
   52.0772   56.3710   16.5911 C   0  0  0  0  0  0  0  0  0  0  0  0
   50.6896   55.9302   17.1346 C   0  0  0  0  0  0  0  0  0  0  0  0
   50.7113   55.1140   18.4544 C   0  0  2  0  0  0  0  0  0  0  0  0
   51.1446   53.7302   18.2610 N   0  0  0  0  0  0  0  0  0  0  0  0
   49.3697   55.2314   19.2415 C   0  0  0  0  0  0  0  0  0  0  0  0
   49.2584   54.5323   20.6383 C   0  0  1  0  0  0  0  0  0  0  0  0
   49.7584   53.1708   20.7926 O   0  0  0  0  0  0  0  0  0  0  0  0
   49.8420   55.3014   21.8564 C   0  0  1  0  0  0  0  0  0  0  0  0
   49.1987   56.5210   22.2485 O   0  0  0  0  0  0  0  0  0  0  0  0
   50.1238   54.2080   22.9331 C   0  0  1  0  0  0  0  0  0  0  0  0
   49.3083   54.1836   24.0800 O   0  0  0  0  0  0  0  0  0  0  0  0
   50.2577   52.9337   22.0935 C   0  0  2  0  0  0  0  0  0  0  0  0
   53.8940   53.4877   17.8995 O   0  0  0  0  0  0  0  0  0  0  0  0
   54.1424   50.1227   24.6419 N   0  0  0  0  0  0  0  0  0  0  0  0
   52.8396   50.3718   25.0885 C   0  0  0  0  0  0  0  0  0  0  0  0
   51.9211   51.1550   24.2650 N   0  0  0  0  0  0  0  0  0  0  0  0
   52.3319   51.6452   23.0542 C   0  0  0  0  0  0  0  0  0  0  0  0
   53.6453   51.3915   22.6130 C   0  0  0  0  0  0  0  0  0  0  0  0
   54.5603   50.6116   23.4346 C   0  0  0  0  0  0  0  0  0  0  0  0
   55.9249   50.3461   22.9776 N   0  0  0  0  0  0  0  0  0  0  0  0
   53.8103   52.0170   21.3237 N   0  0  0  0  0  0  0  0  0  0  0  0
   52.5896   52.6509   20.9927 C   0  0  0  0  0  0  0  0  0  0  0  0
   51.6611   52.4304   22.0507 N   0  0  0  0  0  0  0  0  0  0  0  0
  2  1  1  1  0  0  0
  2  3  1  0  0  0  0
  2  5  1  0  0  0  0
  3  4  1  0  0  0  0
  3 17  1  0  0  0  0
  5  6  1  0  0  0  0
  7  6  1  6  0  0  0
  7  8  1  0  0  0  0
  7  9  1  0  0  0  0
 10  9  1  6  0  0  0
 10 11  1  0  0  0  0
 10 12  1  0  0  0  0
 11 16  1  0  0  0  0
 12 13  1  1  0  0  0
 12 14  1  0  0  0  0
 14 15  1  1  0  0  0
 14 16  1  0  0  0  0
 16 27  1  6  0  0  0
 18 19  2  0  0  0  0
 18 23  1  0  0  0  0
 19 20  1  0  0  0  0
 20 21  2  0  0  0  0
 21 22  1  0  0  0  0
 21 27  1  0  0  0  0
 22 23  2  0  0  0  0
 22 25  1  0  0  0  0
 23 24  1  0  0  0  0
 25 26  2  0  0  0  0
 26 27  1  0  0  0  0
M  END
>  <CHROM.1>
-167.56449997,51.98276585,56.73886482,-75.24163626,-176.51625652,-44.84540468
-155.88864913,51.92503612,53.52882183,20.70715107,-1.73030737,-0.53061033
2.05524322

>  <Name>
ligand

>  <RI>
0

>  <Rbt.Current_Directory>
/home/itssahil/PROJECTS/Mol_Feturizer/New_Systems/rnas/3GX2

>  <Rbt.Executable>
rbdock ($Id: //depot/dev/client3/rdock/2013.1/src/exe/rbdock.cxx#4 $)

>  <Rbt.Library>
libRbt.so (2013.1, Build901 2013/11/27)

>  <Rbt.Parameter_File>
/export/apps/rDock/src/rDock_2013.1_src/data/scripts/dock_solv.prm

>  <Rbt.Receptor>
prm/blind_docking_100.prm

>  <SCORE>
-10.3156

>  <SCORE.INTER>
-9.86577

>  <SCORE.INTER.CONST>
1

>  <SCORE.INTER.POLAR>
0

>  <SCORE.INTER.ROT>
7

>  <SCORE.INTER.SOLV>
15.4849

>  <SCORE.INTER.VDW>
-20.0055

>  <SCORE.INTER.norm>
-0.365399

>  <SCORE.INTRA>
-0.449836

>  <SCORE.INTRA.DIHEDRAL>
-7.47504

>  <SCORE.INTRA.DIHEDRAL.0>
13.9704

>  <SCORE.INTRA.POLAR>
0

>  <SCORE.INTRA.POLAR.0>
0

>  <SCORE.INTRA.REPUL>
0

>  <SCORE.INTRA.REPUL.0>
0

>  <SCORE.INTRA.SOLV>
7.98425

>  <SCORE.INTRA.SOLV.lig_0>
-70.9758

>  <SCORE.INTRA.VDW>
-0.70444

>  <SCORE.INTRA.VDW.0>
-2.70686

>  <SCORE.INTRA.norm>
-0.0166606

>  <SCORE.RESTR>
0

>  <SCORE.RESTR.CAVITY>
0

>  <SCORE.RESTR.norm>
0

>  <SCORE.SYSTEM>
0

>  <SCORE.SYSTEM.CONST>
0

>  <SCORE.SYSTEM.DIHEDRAL>
0

>  <SCORE.SYSTEM.SOLV>
0

>  <SCORE.SYSTEM.norm>
0

>  <SCORE.heavy>
27

>  <SCORE.norm>
-0.382059

>  <RMSD>
12.747

$$$$
ligand
 OpenBabel11021811473D
libRbt.so/2013.1/901 2013/11/27
 27 29  0  0  0  0  0  0  0  0999 V2000
   44.3059   57.5824   17.5466 N   0  0  0  0  0  0  0  0  0  0  0  0
   44.0957   56.2857   18.1866 C   0  0  2  0  0  0  0  0  0  0  0  0
   42.7269   55.6649   17.8996 C   0  0  0  0  0  0  0  0  0  0  0  0
   41.7793   56.3759   17.8433 O   0  0  0  0  0  0  0  0  0  0  0  0
   44.4770   56.2369   19.6811 C   0  0  0  0  0  0  0  0  0  0  0  0
   44.7542   54.8638   20.3540 C   0  0  0  0  0  0  0  0  0  0  0  0
   46.2495   54.4749   20.5002 C   0  0  2  0  0  0  0  0  0  0  0  0
   46.6517   53.4057   19.5863 N   0  0  0  0  0  0  0  0  0  0  0  0
   46.6424   54.1931   21.9832 C   0  0  0  0  0  0  0  0  0  0  0  0
   48.1573   54.0051   22.3328 C   0  0  1  0  0  0  0  0  0  0  0  0
   49.0281   53.3309   21.3766 O   0  0  0  0  0  0  0  0  0  0  0  0
   48.9456   55.2796   22.7455 C   0  0  1  0  0  0  0  0  0  0  0  0
   48.5865   55.9190   23.9773 O   0  0  0  0  0  0  0  0  0  0  0  0
   50.4435   54.9401   22.4713 C   0  0  1  0  0  0  0  0  0  0  0  0
   51.2948   54.7632   23.5780 O   0  0  0  0  0  0  0  0  0  0  0  0
   50.3511   53.8263   21.4236 C   0  0  2  0  0  0  0  0  0  0  0  0
   42.6802   54.4149   17.2507 O   0  0  0  0  0  0  0  0  0  0  0  0
   54.2774   53.6512   17.6766 N   0  0  0  0  0  0  0  0  0  0  0  0
   54.2602   53.0131   18.9221 C   0  0  0  0  0  0  0  0  0  0  0  0
   53.1111   53.1734   19.8104 N   0  0  0  0  0  0  0  0  0  0  0  0
   52.0482   53.9464   19.4258 C   0  0  0  0  0  0  0  0  0  0  0  0
   52.0744   54.5866   18.1714 C   0  0  0  0  0  0  0  0  0  0  0  0
   53.2203   54.4270   17.2871 C   0  0  0  0  0  0  0  0  0  0  0  0
   53.2490   55.0906   15.9831 N   0  0  0  0  0  0  0  0  0  0  0  0
   50.8455   55.3276   18.0242 N   0  0  0  0  0  0  0  0  0  0  0  0
   50.0808   55.1318   19.1983 C   0  0  0  0  0  0  0  0  0  0  0  0
   50.8076   54.2779   20.0774 N   0  0  0  0  0  0  0  0  0  0  0  0
  2  1  1  1  0  0  0
  2  3  1  0  0  0  0
  2  5  1  0  0  0  0
  3  4  1  0  0  0  0
  3 17  1  0  0  0  0
  5  6  1  0  0  0  0
  7  6  1  1  0  0  0
  7  8  1  0  0  0  0
  7  9  1  0  0  0  0
 10  9  1  6  0  0  0
 10 11  1  0  0  0  0
 10 12  1  0  0  0  0
 11 16  1  0  0  0  0
 12 13  1  1  0  0  0
 12 14  1  0  0  0  0
 14 15  1  1  0  0  0
 14 16  1  0  0  0  0
 16 27  1  6  0  0  0
 18 19  2  0  0  0  0
 18 23  1  0  0  0  0
 19 20  1  0  0  0  0
 20 21  2  0  0  0  0
 21 22  1  0  0  0  0
 21 27  1  0  0  0  0
 22 23  2  0  0  0  0
 22 25  1  0  0  0  0
 23 24  1  0  0  0  0
 25 26  2  0  0  0  0
 26 27  1  0  0  0  0
M  END
>  <CHROM.1>
-37.80435735,-159.85347811,99.08905144,-107.92159586,-170.68630938,-35.88134501
-131.42823083,48.58295249,54.76432393,19.79228115,-3.05740063,-0.16756700
1.64187551

>  <Name>
ligand

>  <RI>
0

>  <Rbt.Current_Directory>
/home/itssahil/PROJECTS/Mol_Feturizer/New_Systems/rnas/3GX2

>  <Rbt.Executable>
rbdock ($Id: //depot/dev/client3/rdock/2013.1/src/exe/rbdock.cxx#4 $)

>  <Rbt.Library>
libRbt.so (2013.1, Build901 2013/11/27)

>  <Rbt.Parameter_File>
/export/apps/rDock/src/rDock_2013.1_src/data/scripts/dock_solv.prm

>  <Rbt.Receptor>
prm/blind_docking_80.prm

>  <SCORE>
-8.70495

>  <SCORE.INTER>
-10.8653

>  <SCORE.INTER.CONST>
1

>  <SCORE.INTER.POLAR>
0

>  <SCORE.INTER.ROT>
7

>  <SCORE.INTER.SOLV>
18.9893

>  <SCORE.INTER.VDW>
-21.84

>  <SCORE.INTER.norm>
-0.40242

>  <SCORE.INTRA>
2.16038

>  <SCORE.INTRA.DIHEDRAL>
3.29324

>  <SCORE.INTRA.DIHEDRAL.0>
13.9704

>  <SCORE.INTRA.POLAR>
0

>  <SCORE.INTRA.POLAR.0>
0

>  <SCORE.INTRA.REPUL>
0

>  <SCORE.INTRA.REPUL.0>
0

>  <SCORE.INTRA.SOLV>
1.59874

>  <SCORE.INTRA.SOLV.lig_0>
-70.9758

>  <SCORE.INTRA.VDW>
-0.285607

>  <SCORE.INTRA.VDW.0>
-2.70686

>  <SCORE.INTRA.norm>
0.0800142

>  <SCORE.RESTR>
0

>  <SCORE.RESTR.CAVITY>
0

>  <SCORE.RESTR.norm>
0

>  <SCORE.SYSTEM>
0

>  <SCORE.SYSTEM.CONST>
0

>  <SCORE.SYSTEM.DIHEDRAL>
0

>  <SCORE.SYSTEM.SOLV>
0

>  <SCORE.SYSTEM.norm>
0

>  <SCORE.heavy>
27

>  <SCORE.norm>
-0.322406

>  <RMSD>
12.853

$$$$
ligand
 OpenBabel11021811473D
libRbt.so/2013.1/901 2013/11/27
 27 29  0  0  0  0  0  0  0  0999 V2000
   55.5318   47.1921   23.9685 N   0  0  0  0  0  0  0  0  0  0  0  0
   55.1079   47.9147   22.7714 C   0  0  2  0  0  0  0  0  0  0  0  0
   55.1493   47.0770   21.4917 C   0  0  0  0  0  0  0  0  0  0  0  0
   55.6067   45.9837   21.5409 O   0  0  0  0  0  0  0  0  0  0  0  0
   55.7499   49.3074   22.5999 C   0  0  0  0  0  0  0  0  0  0  0  0
   55.3292   50.4643   23.5483 C   0  0  0  0  0  0  0  0  0  0  0  0
   53.8759   50.9811   23.3772 C   0  0  2  0  0  0  0  0  0  0  0  0
   53.5616   51.3501   21.9970 N   0  0  0  0  0  0  0  0  0  0  0  0
   53.5237   52.0997   24.4057 C   0  0  0  0  0  0  0  0  0  0  0  0
   52.2107   52.9260   24.1917 C   0  0  1  0  0  0  0  0  0  0  0  0
   52.1880   53.9719   23.1754 O   0  0  0  0  0  0  0  0  0  0  0  0
   50.9052   52.1184   23.9482 C   0  0  1  0  0  0  0  0  0  0  0  0
   50.4032   51.3172   25.0257 O   0  0  0  0  0  0  0  0  0  0  0  0
   49.9424   53.1076   23.2212 C   0  0  1  0  0  0  0  0  0  0  0  0
   48.8243   53.5840   23.9309 O   0  0  0  0  0  0  0  0  0  0  0  0
   50.9074   54.1196   22.5955 C   0  0  2  0  0  0  0  0  0  0  0  0
   54.2503   47.3931   20.4537 O   0  0  0  0  0  0  0  0  0  0  0  0
   54.0524   53.3163   18.2421 N   0  0  0  0  0  0  0  0  0  0  0  0
   54.4496   53.3572   19.5835 C   0  0  0  0  0  0  0  0  0  0  0  0
   53.4593   53.5866   20.6331 N   0  0  0  0  0  0  0  0  0  0  0  0
   52.1406   53.7602   20.3072 C   0  0  0  0  0  0  0  0  0  0  0  0
   51.7496   53.7195   18.9546 C   0  0  0  0  0  0  0  0  0  0  0  0
   52.7372   53.4916   17.9091 C   0  0  0  0  0  0  0  0  0  0  0  0
   52.3328   53.4480   16.5034 N   0  0  0  0  0  0  0  0  0  0  0  0
   50.3238   53.9308   18.8971 N   0  0  0  0  0  0  0  0  0  0  0  0
   49.8595   54.1016   20.2225 C   0  0  0  0  0  0  0  0  0  0  0  0
   50.9691   53.9974   21.1102 N   0  0  0  0  0  0  0  0  0  0  0  0
  2  1  1  1  0  0  0
  2  3  1  0  0  0  0
  2  5  1  0  0  0  0
  3  4  1  0  0  0  0
  3 17  1  0  0  0  0
  5  6  1  0  0  0  0
  7  6  1  6  0  0  0
  7  8  1  0  0  0  0
  7  9  1  0  0  0  0
 10  9  1  6  0  0  0
 10 11  1  0  0  0  0
 10 12  1  0  0  0  0
 11 16  1  0  0  0  0
 12 13  1  1  0  0  0
 12 14  1  0  0  0  0
 14 15  1  1  0  0  0
 14 16  1  0  0  0  0
 16 27  1  6  0  0  0
 18 19  2  0  0  0  0
 18 23  1  0  0  0  0
 19 20  1  0  0  0  0
 20 21  2  0  0  0  0
 21 22  1  0  0  0  0
 21 27  1  0  0  0  0
 22 23  2  0  0  0  0
 22 25  1  0  0  0  0
 23 24  1  0  0  0  0
 25 26  2  0  0  0  0
 26 27  1  0  0  0  0
M  END
>  <CHROM.1>
-5.90148104,-70.97495811,-68.29365945,-53.05036985,167.93046524,-76.88843552
0.03114598,52.78885205,51.68740028,21.71781125,0.57420637,-0.86664028,1.99244467

>  <Name>
ligand

>  <RI>
0

>  <Rbt.Current_Directory>
/home/itssahil/PROJECTS/Mol_Feturizer/New_Systems/rnas/3GX2

>  <Rbt.Executable>
rbdock ($Id: //depot/dev/client3/rdock/2013.1/src/exe/rbdock.cxx#4 $)

>  <Rbt.Library>
libRbt.so (2013.1, Build901 2013/11/27)

>  <Rbt.Parameter_File>
/export/apps/rDock/src/rDock_2013.1_src/data/scripts/dock_solv.prm

>  <Rbt.Receptor>
prm/blind_docking_80.prm

>  <SCORE>
-10.5672

>  <SCORE.INTER>
-9.11002

>  <SCORE.INTER.CONST>
1

>  <SCORE.INTER.POLAR>
0

>  <SCORE.INTER.ROT>
7

>  <SCORE.INTER.SOLV>
16.6947

>  <SCORE.INTER.VDW>
-19.9049

>  <SCORE.INTER.norm>
-0.337408

>  <SCORE.INTRA>
-1.45717

>  <SCORE.INTRA.DIHEDRAL>
-6.91054

>  <SCORE.INTRA.DIHEDRAL.0>
13.9704

>  <SCORE.INTRA.POLAR>
0

>  <SCORE.INTRA.POLAR.0>
0

>  <SCORE.INTRA.REPUL>
0

>  <SCORE.INTRA.REPUL.0>
0

>  <SCORE.INTRA.SOLV>
4.9493

>  <SCORE.INTRA.SOLV.lig_0>
-70.9758

>  <SCORE.INTRA.VDW>
-0.47655

>  <SCORE.INTRA.VDW.0>
-2.70686

>  <SCORE.INTRA.norm>
-0.0539693

>  <SCORE.RESTR>
0

>  <SCORE.RESTR.CAVITY>
0

>  <SCORE.RESTR.norm>
0

>  <SCORE.SYSTEM>
0

>  <SCORE.SYSTEM.CONST>
0

>  <SCORE.SYSTEM.DIHEDRAL>
0

>  <SCORE.SYSTEM.SOLV>
0

>  <SCORE.SYSTEM.norm>
0

>  <SCORE.heavy>
27

>  <SCORE.norm>
-0.391378

>  <RMSD>
12.899

$$$$
ligand
 OpenBabel11021811473D
libRbt.so/2013.1/901 2013/11/27
 27 29  0  0  0  0  0  0  0  0999 V2000
   53.5426   45.0351   20.8157 N   0  0  0  0  0  0  0  0  0  0  0  0
   53.8251   46.3332   20.2072 C   0  0  2  0  0  0  0  0  0  0  0  0
   53.6798   46.3511   18.6841 C   0  0  0  0  0  0  0  0  0  0  0  0
   52.6241   46.6208   18.2156 O   0  0  0  0  0  0  0  0  0  0  0  0
   55.1268   47.0026   20.6954 C   0  0  0  0  0  0  0  0  0  0  0  0
   55.1852   47.6058   22.1265 C   0  0  0  0  0  0  0  0  0  0  0  0
   54.3293   48.8798   22.3560 C   0  0  2  0  0  0  0  0  0  0  0  0
   54.5470   49.9037   21.3342 N   0  0  0  0  0  0  0  0  0  0  0  0
   54.4660   49.4270   23.8104 C   0  0  0  0  0  0  0  0  0  0  0  0
   53.8562   50.8309   24.1416 C   0  0  1  0  0  0  0  0  0  0  0  0
   54.1949   51.9695   23.2955 O   0  0  0  0  0  0  0  0  0  0  0  0
   52.3114   50.9063   24.2954 C   0  0  1  0  0  0  0  0  0  0  0  0
   51.7148   50.2193   25.4033 O   0  0  0  0  0  0  0  0  0  0  0  0
   51.9480   52.4020   24.0410 C   0  0  1  0  0  0  0  0  0  0  0  0
   51.5104   53.1717   25.1351 O   0  0  0  0  0  0  0  0  0  0  0  0
   53.1359   52.9020   23.2128 C   0  0  2  0  0  0  0  0  0  0  0  0
   54.8381   46.5307   17.9019 O   0  0  0  0  0  0  0  0  0  0  0  0
   49.7184   55.4227   19.8285 N   0  0  0  0  0  0  0  0  0  0  0  0
   49.7021   55.4453   21.2278 C   0  0  0  0  0  0  0  0  0  0  0  0
   50.7075   54.7013   21.9832 N   0  0  0  0  0  0  0  0  0  0  0  0
   51.6685   53.9818   21.3244 C   0  0  0  0  0  0  0  0  0  0  0  0
   51.6765   53.9628   19.9159 C   0  0  0  0  0  0  0  0  0  0  0  0
   50.6738   54.7040   19.1638 C   0  0  0  0  0  0  0  0  0  0  0  0
   50.6811   54.6863   17.7005 N   0  0  0  0  0  0  0  0  0  0  0  0
   52.7797   53.1376   19.4883 N   0  0  0  0  0  0  0  0  0  0  0  0
   53.4338   52.6580   20.6474 C   0  0  0  0  0  0  0  0  0  0  0  0
   52.7619   53.1712   21.7942 N   0  0  0  0  0  0  0  0  0  0  0  0
  2  1  1  6  0  0  0
  2  3  1  0  0  0  0
  2  5  1  0  0  0  0
  3  4  1  0  0  0  0
  3 17  1  0  0  0  0
  5  6  1  0  0  0  0
  7  6  1  6  0  0  0
  7  8  1  0  0  0  0
  7  9  1  0  0  0  0
 10  9  1  6  0  0  0
 10 11  1  0  0  0  0
 10 12  1  0  0  0  0
 11 16  1  0  0  0  0
 12 13  1  1  0  0  0
 12 14  1  0  0  0  0
 14 15  1  1  0  0  0
 14 16  1  0  0  0  0
 16 27  1  6  0  0  0
 18 19  2  0  0  0  0
 18 23  1  0  0  0  0
 19 20  1  0  0  0  0
 20 21  2  0  0  0  0
 21 22  1  0  0  0  0
 21 27  1  0  0  0  0
 22 23  2  0  0  0  0
 22 25  1  0  0  0  0
 23 24  1  0  0  0  0
 25 26  2  0  0  0  0
 26 27  1  0  0  0  0
M  END
>  <CHROM.1>
89.93617389,-72.64463669,-69.42966474,-49.86283642,170.18950143,-51.37229958
174.93421069,52.79635413,50.93866385,21.45803048,0.43584702,1.14857619,-1.89811680

>  <Name>
ligand

>  <RI>
0

>  <Rbt.Current_Directory>
/home/itssahil/PROJECTS/Mol_Feturizer/New_Systems/rnas/3GX2

>  <Rbt.Executable>
rbdock ($Id: //depot/dev/client3/rdock/2013.1/src/exe/rbdock.cxx#4 $)

>  <Rbt.Library>
libRbt.so (2013.1, Build901 2013/11/27)

>  <Rbt.Parameter_File>
/export/apps/rDock/src/rDock_2013.1_src/data/scripts/dock_solv.prm

>  <Rbt.Receptor>
prm/blind_docking_80.prm

>  <SCORE>
-16.4667

>  <SCORE.INTER>
-14.7771

>  <SCORE.INTER.CONST>
1

>  <SCORE.INTER.POLAR>
0

>  <SCORE.INTER.ROT>
7

>  <SCORE.INTER.SOLV>
19.642

>  <SCORE.INTER.VDW>
-24.6654

>  <SCORE.INTER.norm>
-0.547301

>  <SCORE.INTRA>
-1.68959

>  <SCORE.INTRA.DIHEDRAL>
-7.64774

>  <SCORE.INTRA.DIHEDRAL.0>
13.9704

>  <SCORE.INTRA.POLAR>
0

>  <SCORE.INTRA.POLAR.0>
0

>  <SCORE.INTRA.REPUL>
0

>  <SCORE.INTRA.REPUL.0>
0

>  <SCORE.INTRA.SOLV>
3.82983

>  <SCORE.INTRA.SOLV.lig_0>
-70.9758

>  <SCORE.INTRA.VDW>
0.219368

>  <SCORE.INTRA.VDW.0>
-2.70686

>  <SCORE.INTRA.norm>
-0.0625773

>  <SCORE.RESTR>
0

>  <SCORE.RESTR.CAVITY>
0

>  <SCORE.RESTR.norm>
0

>  <SCORE.SYSTEM>
0

>  <SCORE.SYSTEM.CONST>
0

>  <SCORE.SYSTEM.DIHEDRAL>
0

>  <SCORE.SYSTEM.SOLV>
0

>  <SCORE.SYSTEM.norm>
0

>  <SCORE.heavy>
27

>  <SCORE.norm>
-0.609878

>  <RMSD>
12.902

$$$$
ligand
 OpenBabel11021811473D
libRbt.so/2013.1/901 2013/11/27
 27 29  0  0  0  0  0  0  0  0999 V2000
   46.8055   54.0563   21.9159 N   0  0  0  0  0  0  0  0  0  0  0  0
   48.0155   54.0325   22.7347 C   0  0  2  0  0  0  0  0  0  0  0  0
   47.8329   53.3564   24.0952 C   0  0  0  0  0  0  0  0  0  0  0  0
   46.7417   53.2865   24.5548 O   0  0  0  0  0  0  0  0  0  0  0  0
   48.7550   55.3835   22.8287 C   0  0  0  0  0  0  0  0  0  0  0  0
   50.1813   55.4322   23.4440 C   0  0  0  0  0  0  0  0  0  0  0  0
   51.2871   54.6973   22.6405 C   0  0  2  0  0  0  0  0  0  0  0  0
   51.2097   54.9513   21.2019 N   0  0  0  0  0  0  0  0  0  0  0  0
   51.3596   53.1791   22.9914 C   0  0  0  0  0  0  0  0  0  0  0  0
   52.5861   52.3509   22.4795 C   0  0  1  0  0  0  0  0  0  0  0  0
   52.7433   52.1271   21.0468 O   0  0  0  0  0  0  0  0  0  0  0  0
   53.9918   52.8101   22.9581 C   0  0  1  0  0  0  0  0  0  0  0  0
   54.2981   52.6836   24.3529 O   0  0  0  0  0  0  0  0  0  0  0  0
   54.9894   52.2381   21.9037 C   0  0  1  0  0  0  0  0  0  0  0  0
   55.8396   51.1884   22.2990 O   0  0  0  0  0  0  0  0  0  0  0  0
   54.1030   52.0470   20.6690 C   0  0  2  0  0  0  0  0  0  0  0  0
   48.8135   52.4408   24.5262 O   0  0  0  0  0  0  0  0  0  0  0  0
   52.7584   53.9969   15.7826 N   0  0  0  0  0  0  0  0  0  0  0  0
   52.1206   52.9762   16.4969 C   0  0  0  0  0  0  0  0  0  0  0  0
   52.6240   52.5770   17.8093 N   0  0  0  0  0  0  0  0  0  0  0  0
   53.7191   53.2014   18.3440 C   0  0  0  0  0  0  0  0  0  0  0  0
   54.3562   54.2264   17.6176 C   0  0  0  0  0  0  0  0  0  0  0  0
   53.8545   54.6232   16.3094 C   0  0  0  0  0  0  0  0  0  0  0  0
   54.5144   55.6885   15.5537 N   0  0  0  0  0  0  0  0  0  0  0  0
   55.4684   54.7031   18.4029 N   0  0  0  0  0  0  0  0  0  0  0  0
   55.4985   53.9573   19.6047 C   0  0  0  0  0  0  0  0  0  0  0  0
   54.4223   53.0238   19.5879 N   0  0  0  0  0  0  0  0  0  0  0  0
  2  1  1  1  0  0  0
  2  3  1  0  0  0  0
  2  5  1  0  0  0  0
  3  4  1  0  0  0  0
  3 17  1  0  0  0  0
  5  6  1  0  0  0  0
  7  6  1  1  0  0  0
  7  8  1  0  0  0  0
  7  9  1  0  0  0  0
 10  9  1  6  0  0  0
 10 11  1  0  0  0  0
 10 12  1  0  0  0  0
 11 16  1  0  0  0  0
 12 13  1  1  0  0  0
 12 14  1  0  0  0  0
 14 15  1  1  0  0  0
 14 16  1  0  0  0  0
 16 27  1  6  0  0  0
 18 19  2  0  0  0  0
 18 23  1  0  0  0  0
 19 20  1  0  0  0  0
 20 21  2  0  0  0  0
 21 22  1  0  0  0  0
 21 27  1  0  0  0  0
 22 23  2  0  0  0  0
 22 25  1  0  0  0  0
 23 24  1  0  0  0  0
 25 26  2  0  0  0  0
 26 27  1  0  0  0  0
M  END
>  <CHROM.1>
-22.73638242,-168.76641316,66.08857054,43.55304603,-168.57859986,-67.06949915
-51.39190011,52.12759079,53.49683681,20.94215816,2.37519579,-0.26148680,1.84754788

>  <Name>
ligand

>  <RI>
0

>  <Rbt.Current_Directory>
/home/itssahil/PROJECTS/Mol_Feturizer/New_Systems/rnas/3GX2

>  <Rbt.Executable>
rbdock ($Id: //depot/dev/client3/rdock/2013.1/src/exe/rbdock.cxx#4 $)

>  <Rbt.Library>
libRbt.so (2013.1, Build901 2013/11/27)

>  <Rbt.Parameter_File>
/export/apps/rDock/src/rDock_2013.1_src/data/scripts/dock_solv.prm

>  <Rbt.Receptor>
prm/blind_docking_100.prm

>  <SCORE>
-11.1585

>  <SCORE.INTER>
-8.91735

>  <SCORE.INTER.CONST>
1

>  <SCORE.INTER.POLAR>
0

>  <SCORE.INTER.ROT>
7

>  <SCORE.INTER.SOLV>
15.9863

>  <SCORE.INTER.VDW>
-19.5403

>  <SCORE.INTER.norm>
-0.330272

>  <SCORE.INTRA>
-2.24115

>  <SCORE.INTRA.DIHEDRAL>
-7.32172

>  <SCORE.INTRA.DIHEDRAL.0>
13.9704

>  <SCORE.INTRA.POLAR>
0

>  <SCORE.INTRA.POLAR.0>
0

>  <SCORE.INTRA.REPUL>
0

>  <SCORE.INTRA.REPUL.0>
0

>  <SCORE.INTRA.SOLV>
2.84766

>  <SCORE.INTRA.SOLV.lig_0>
-70.9758

>  <SCORE.INTRA.VDW>
-0.00412029

>  <SCORE.INTRA.VDW.0>
-2.70686

>  <SCORE.INTRA.norm>
-0.0830056

>  <SCORE.RESTR>
0

>  <SCORE.RESTR.CAVITY>
0

>  <SCORE.RESTR.norm>
0

>  <SCORE.SYSTEM>
0

>  <SCORE.SYSTEM.CONST>
0

>  <SCORE.SYSTEM.DIHEDRAL>
0

>  <SCORE.SYSTEM.SOLV>
0

>  <SCORE.SYSTEM.norm>
0

>  <SCORE.heavy>
27

>  <SCORE.norm>
-0.413278

>  <RMSD>
12.971

$$$$
ligand
 OpenBabel11021811473D
libRbt.so/2013.1/901 2013/11/27
 27 29  0  0  0  0  0  0  0  0999 V2000
   44.1673   55.8617   18.8379 N   0  0  0  0  0  0  0  0  0  0  0  0
   45.3841   56.6699   18.8031 C   0  0  2  0  0  0  0  0  0  0  0  0
   45.5926   57.4242   17.4882 C   0  0  0  0  0  0  0  0  0  0  0  0
   45.0657   57.0156   16.5072 O   0  0  0  0  0  0  0  0  0  0  0  0
   46.6550   55.9399   19.2859 C   0  0  0  0  0  0  0  0  0  0  0  0
   46.5369   54.8454   20.3828 C   0  0  0  0  0  0  0  0  0  0  0  0
   47.8786   54.3346   20.9721 C   0  0  2  0  0  0  0  0  0  0  0  0
   48.5528   55.3331   21.8018 N   0  0  0  0  0  0  0  0  0  0  0  0
   48.8058   53.7195   19.8788 C   0  0  0  0  0  0  0  0  0  0  0  0
   50.2264   54.3431   19.6656 C   0  0  1  0  0  0  0  0  0  0  0  0
   51.2206   54.2232   20.7259 O   0  0  0  0  0  0  0  0  0  0  0  0
   50.9854   53.9341   18.3724 C   0  0  1  0  0  0  0  0  0  0  0  0
   50.4446   54.3617   17.1155 O   0  0  0  0  0  0  0  0  0  0  0  0
   52.4918   54.1959   18.6827 C   0  0  1  0  0  0  0  0  0  0  0  0
   53.1276   55.2628   18.0207 O   0  0  0  0  0  0  0  0  0  0  0  0
   52.5354   54.1437   20.2131 C   0  0  2  0  0  0  0  0  0  0  0  0
   45.9663   58.7817   17.5456 O   0  0  0  0  0  0  0  0  0  0  0  0
   52.7874   50.3221   24.0626 N   0  0  0  0  0  0  0  0  0  0  0  0
   51.8732   51.3778   23.9695 C   0  0  0  0  0  0  0  0  0  0  0  0
   51.9550   52.3202   22.8559 N   0  0  0  0  0  0  0  0  0  0  0  0
   52.9245   52.1720   21.9003 C   0  0  0  0  0  0  0  0  0  0  0  0
   53.8417   51.1079   22.0026 C   0  0  0  0  0  0  0  0  0  0  0  0
   53.7601   50.1695   23.1130 C   0  0  0  0  0  0  0  0  0  0  0  0
   54.7115   49.0628   23.2204 N   0  0  0  0  0  0  0  0  0  0  0  0
   54.7435   51.1883   20.8795 N   0  0  0  0  0  0  0  0  0  0  0  0
   54.3654   52.3084   20.1023 C   0  0  0  0  0  0  0  0  0  0  0  0
   53.2399   52.9293   20.7169 N   0  0  0  0  0  0  0  0  0  0  0  0
  2  1  1  6  0  0  0
  2  3  1  0  0  0  0
  2  5  1  0  0  0  0
  3  4  1  0  0  0  0
  3 17  1  0  0  0  0
  5  6  1  0  0  0  0
  7  6  1  6  0  0  0
  7  8  1  0  0  0  0
  7  9  1  0  0  0  0
 10  9  1  1  0  0  0
 10 11  1  0  0  0  0
 10 12  1  0  0  0  0
 11 16  1  0  0  0  0
 12 13  1  6  0  0  0
 12 14  1  0  0  0  0
 14 15  1  1  0  0  0
 14 16  1  0  0  0  0
 16 27  1  6  0  0  0
 18 19  2  0  0  0  0
 18 23  1  0  0  0  0
 19 20  1  0  0  0  0
 20 21  2  0  0  0  0
 21 22  1  0  0  0  0
 21 27  1  0  0  0  0
 22 23  2  0  0  0  0
 22 25  1  0  0  0  0
 23 24  1  0  0  0  0
 25 26  2  0  0  0  0
 26 27  1  0  0  0  0
M  END
>  <CHROM.1>
-23.28660145,-31.57560755,-170.24529567,69.95726290,121.17932192,66.64009346
-21.79998014,50.27124503,53.92683069,20.17035504,2.47781742,0.29999409,-0.98874122

>  <Name>
ligand

>  <RI>
0

>  <Rbt.Current_Directory>
/home/itssahil/PROJECTS/Mol_Feturizer/New_Systems/rnas/3GX2

>  <Rbt.Executable>
rbdock ($Id: //depot/dev/client3/rdock/2013.1/src/exe/rbdock.cxx#4 $)

>  <Rbt.Library>
libRbt.so (2013.1, Build901 2013/11/27)

>  <Rbt.Parameter_File>
/export/apps/rDock/src/rDock_2013.1_src/data/scripts/dock_solv.prm

>  <Rbt.Receptor>
prm/blind_docking_80.prm

>  <SCORE>
-12.8043

>  <SCORE.INTER>
-14.1221

>  <SCORE.INTER.CONST>
1

>  <SCORE.INTER.POLAR>
0

>  <SCORE.INTER.ROT>
7

>  <SCORE.INTER.SOLV>
18.7118

>  <SCORE.INTER.VDW>
-23.9187

>  <SCORE.INTER.norm>
-0.523043

>  <SCORE.INTRA>
1.31789

>  <SCORE.INTRA.DIHEDRAL>
-0.984933

>  <SCORE.INTRA.DIHEDRAL.0>
13.9704

>  <SCORE.INTRA.POLAR>
0

>  <SCORE.INTRA.POLAR.0>
0

>  <SCORE.INTRA.REPUL>
0

>  <SCORE.INTRA.REPUL.0>
0

>  <SCORE.INTRA.SOLV>
1.83355

>  <SCORE.INTRA.SOLV.lig_0>
-70.9758

>  <SCORE.INTRA.VDW>
0.89358

>  <SCORE.INTRA.VDW.0>
-2.70686

>  <SCORE.INTRA.norm>
0.0488107

>  <SCORE.RESTR>
0

>  <SCORE.RESTR.CAVITY>
0

>  <SCORE.RESTR.norm>
0

>  <SCORE.SYSTEM>
0

>  <SCORE.SYSTEM.CONST>
0

>  <SCORE.SYSTEM.DIHEDRAL>
0

>  <SCORE.SYSTEM.SOLV>
0

>  <SCORE.SYSTEM.norm>
0

>  <SCORE.heavy>
27

>  <SCORE.norm>
-0.474232

>  <RMSD>
13.135

$$$$
ligand
 OpenBabel11021811473D
libRbt.so/2013.1/901 2013/11/27
 27 29  0  0  0  0  0  0  0  0999 V2000
   51.9711   54.9703   18.6456 N   0  0  0  0  0  0  0  0  0  0  0  0
   50.9243   55.0352   19.6629 C   0  0  2  0  0  0  0  0  0  0  0  0
   51.0597   53.9805   20.7631 C   0  0  0  0  0  0  0  0  0  0  0  0
   51.8865   53.1381   20.6462 O   0  0  0  0  0  0  0  0  0  0  0  0
   49.4899   55.1407   19.1038 C   0  0  0  0  0  0  0  0  0  0  0  0
   48.2892   55.2030   20.0884 C   0  0  0  0  0  0  0  0  0  0  0  0
   47.9564   53.8808   20.8296 C   0  0  2  0  0  0  0  0  0  0  0  0
   47.8136   52.7408   19.9241 N   0  0  0  0  0  0  0  0  0  0  0  0
   46.7516   54.0409   21.8074 C   0  0  0  0  0  0  0  0  0  0  0  0
   45.3474   54.3961   21.2121 C   0  0  1  0  0  0  0  0  0  0  0  0
   45.0322   55.7899   20.9199 O   0  0  0  0  0  0  0  0  0  0  0  0
   44.9097   53.6226   19.9370 C   0  0  1  0  0  0  0  0  0  0  0  0
   44.6685   52.2147   20.0581 O   0  0  0  0  0  0  0  0  0  0  0  0
   43.8313   54.5253   19.2615 C   0  0  1  0  0  0  0  0  0  0  0  0
   42.4946   54.0850   19.2797 O   0  0  0  0  0  0  0  0  0  0  0  0
   44.1598   55.9155   19.8148 C   0  0  2  0  0  0  0  0  0  0  0  0
   50.5795   54.2895   22.0514 O   0  0  0  0  0  0  0  0  0  0  0  0
   43.2339   58.7791   15.2949 N   0  0  0  0  0  0  0  0  0  0  0  0
   42.3185   57.9999   16.0116 C   0  0  0  0  0  0  0  0  0  0  0  0
   42.7459   57.2915   17.2160 N   0  0  0  0  0  0  0  0  0  0  0  0
   44.0419   57.3895   17.6471 C   0  0  0  0  0  0  0  0  0  0  0  0
   44.9573   58.1742   16.9188 C   0  0  0  0  0  0  0  0  0  0  0  0
   44.5308   58.8794   15.7182 C   0  0  0  0  0  0  0  0  0  0  0  0
   45.4801   59.6959   14.9609 N   0  0  0  0  0  0  0  0  0  0  0  0
   46.2347   58.1012   17.5851 N   0  0  0  0  0  0  0  0  0  0  0  0
   46.0834   57.2659   18.7169 C   0  0  0  0  0  0  0  0  0  0  0  0
   44.7324   56.8170   18.7736 N   0  0  0  0  0  0  0  0  0  0  0  0
  2  1  1  6  0  0  0
  2  3  1  0  0  0  0
  2  5  1  0  0  0  0
  3  4  1  0  0  0  0
  3 17  1  0  0  0  0
  5  6  1  0  0  0  0
  7  6  1  6  0  0  0
  7  8  1  0  0  0  0
  7  9  1  0  0  0  0
 10  9  1  6  0  0  0
 10 11  1  0  0  0  0
 10 12  1  0  0  0  0
 11 16  1  0  0  0  0
 12 13  1  1  0  0  0
 12 14  1  0  0  0  0
 14 15  1  1  0  0  0
 14 16  1  0  0  0  0
 16 27  1  6  0  0  0
 18 19  2  0  0  0  0
 18 23  1  0  0  0  0
 19 20  1  0  0  0  0
 20 21  2  0  0  0  0
 21 22  1  0  0  0  0
 21 27  1  0  0  0  0
 22 23  2  0  0  0  0
 22 25  1  0  0  0  0
 23 24  1  0  0  0  0
 25 26  2  0  0  0  0
 26 27  1  0  0  0  0
M  END
>  <CHROM.1>
-7.24684574,179.42278014,-71.78274186,-51.46050262,63.51323726,-83.03761951
-166.87646630,46.41155305,55.59385326,19.06832580,-0.69292690,-0.03691376
-0.73406737

>  <Name>
ligand

>  <RI>
0

>  <Rbt.Current_Directory>
/home/itssahil/PROJECTS/Mol_Feturizer/New_Systems/rnas/3GX2

>  <Rbt.Executable>
rbdock ($Id: //depot/dev/client3/rdock/2013.1/src/exe/rbdock.cxx#4 $)

>  <Rbt.Library>
libRbt.so (2013.1, Build901 2013/11/27)

>  <Rbt.Parameter_File>
/export/apps/rDock/src/rDock_2013.1_src/data/scripts/dock_solv.prm

>  <Rbt.Receptor>
prm/blind_docking_80.prm

>  <SCORE>
-6.77544

>  <SCORE.INTER>
-5.32179

>  <SCORE.INTER.CONST>
1

>  <SCORE.INTER.POLAR>
0

>  <SCORE.INTER.ROT>
7

>  <SCORE.INTER.SOLV>
21.0557

>  <SCORE.INTER.VDW>
-18.8331

>  <SCORE.INTER.norm>
-0.197103

>  <SCORE.INTRA>
-1.45365

>  <SCORE.INTRA.DIHEDRAL>
-6.70251

>  <SCORE.INTRA.DIHEDRAL.0>
13.9704

>  <SCORE.INTRA.POLAR>
0

>  <SCORE.INTRA.POLAR.0>
0

>  <SCORE.INTRA.REPUL>
0

>  <SCORE.INTRA.REPUL.0>
0

>  <SCORE.INTRA.SOLV>
4.38884

>  <SCORE.INTRA.SOLV.lig_0>
-70.9758

>  <SCORE.INTRA.VDW>
-0.296817

>  <SCORE.INTRA.VDW.0>
-2.70686

>  <SCORE.INTRA.norm>
-0.053839

>  <SCORE.RESTR>
0

>  <SCORE.RESTR.CAVITY>
0

>  <SCORE.RESTR.norm>
0

>  <SCORE.SYSTEM>
0

>  <SCORE.SYSTEM.CONST>
0

>  <SCORE.SYSTEM.DIHEDRAL>
0

>  <SCORE.SYSTEM.SOLV>
0

>  <SCORE.SYSTEM.norm>
0

>  <SCORE.heavy>
27

>  <SCORE.norm>
-0.250942

>  <RMSD>
13.219

$$$$
ligand
 OpenBabel11021811473D
libRbt.so/2013.1/901 2013/11/27
 27 29  0  0  0  0  0  0  0  0999 V2000
   53.2879   56.1472   14.8294 N   0  0  0  0  0  0  0  0  0  0  0  0
   53.5946   56.8806   16.0554 C   0  0  2  0  0  0  0  0  0  0  0  0
   55.0908   56.9913   16.3564 C   0  0  0  0  0  0  0  0  0  0  0  0
   55.7925   56.0689   16.1041 O   0  0  0  0  0  0  0  0  0  0  0  0
   52.7637   56.4552   17.2842 C   0  0  0  0  0  0  0  0  0  0  0  0
   52.7916   54.9725   17.7488 C   0  0  0  0  0  0  0  0  0  0  0  0
   52.0095   54.6602   19.0524 C   0  0  2  0  0  0  0  0  0  0  0  0
   52.1663   53.2739   19.4922 N   0  0  0  0  0  0  0  0  0  0  0  0
   50.5186   55.1108   18.9670 C   0  0  0  0  0  0  0  0  0  0  0  0
   49.6557   55.0923   20.2737 C   0  0  1  0  0  0  0  0  0  0  0  0
   48.5047   55.9821   20.3769 O   0  0  0  0  0  0  0  0  0  0  0  0
   49.1220   53.7098   20.7425 C   0  0  1  0  0  0  0  0  0  0  0  0
   50.0789   52.7370   21.1819 O   0  0  0  0  0  0  0  0  0  0  0  0
   47.8923   54.0319   21.6471 C   0  0  1  0  0  0  0  0  0  0  0  0
   48.0109   53.8027   23.0306 O   0  0  0  0  0  0  0  0  0  0  0  0
   47.4706   55.4222   21.1611 C   0  0  2  0  0  0  0  0  0  0  0  0
   55.6624   58.2758   16.4526 O   0  0  0  0  0  0  0  0  0  0  0  0
   44.5146   57.5590   17.1382 N   0  0  0  0  0  0  0  0  0  0  0  0
   45.8062   57.9259   17.5332 C   0  0  0  0  0  0  0  0  0  0  0  0
   46.4540   57.2368   18.6471 N   0  0  0  0  0  0  0  0  0  0  0  0
   45.8001   56.2299   19.3056 C   0  0  0  0  0  0  0  0  0  0  0  0
   44.4997   55.8682   18.9028 C   0  0  0  0  0  0  0  0  0  0  0  0
   43.8545   56.5558   17.7932 C   0  0  0  0  0  0  0  0  0  0  0  0
   42.5039   56.1808   17.3726 N   0  0  0  0  0  0  0  0  0  0  0  0
   44.0517   54.7952   19.7566 N   0  0  0  0  0  0  0  0  0  0  0  0
   45.0888   54.5152   20.6772 C   0  0  0  0  0  0  0  0  0  0  0  0
   46.1806   55.3917   20.4129 N   0  0  0  0  0  0  0  0  0  0  0  0
  2  1  1  6  0  0  0
  2  3  1  0  0  0  0
  2  5  1  0  0  0  0
  3  4  1  0  0  0  0
  3 17  1  0  0  0  0
  5  6  1  0  0  0  0
  7  6  1  6  0  0  0
  7  8  1  0  0  0  0
  7  9  1  0  0  0  0
 10  9  1  6  0  0  0
 10 11  1  0  0  0  0
 10 12  1  0  0  0  0
 11 16  1  0  0  0  0
 12 13  1  1  0  0  0
 12 14  1  0  0  0  0
 14 15  1  1  0  0  0
 14 16  1  0  0  0  0
 16 27  1  6  0  0  0
 18 19  2  0  0  0  0
 18 23  1  0  0  0  0
 19 20  1  0  0  0  0
 20 21  2  0  0  0  0
 21 22  1  0  0  0  0
 21 27  1  0  0  0  0
 22 23  2  0  0  0  0
 22 25  1  0  0  0  0
 23 24  1  0  0  0  0
 25 26  2  0  0  0  0
 26 27  1  0  0  0  0
M  END
>  <CHROM.1>
-37.00862648,57.18960522,175.67884316,-175.30053040,-169.77004694,154.75329099
-23.49060069,49.15258158,55.60906972,18.83204840,0.26059319,0.11642914,-0.94827849

>  <Name>
ligand

>  <RI>
0

>  <Rbt.Current_Directory>
/home/itssahil/PROJECTS/Mol_Feturizer/New_Systems/rnas/3GX2

>  <Rbt.Executable>
rbdock ($Id: //depot/dev/client3/rdock/2013.1/src/exe/rbdock.cxx#4 $)

>  <Rbt.Library>
libRbt.so (2013.1, Build901 2013/11/27)

>  <Rbt.Parameter_File>
/export/apps/rDock/src/rDock_2013.1_src/data/scripts/dock_solv.prm

>  <Rbt.Receptor>
prm/blind_docking_100.prm

>  <SCORE>
-11.9936

>  <SCORE.INTER>
-10.4056

>  <SCORE.INTER.CONST>
1

>  <SCORE.INTER.POLAR>
0

>  <SCORE.INTER.ROT>
7

>  <SCORE.INTER.SOLV>
15.5027

>  <SCORE.INTER.VDW>
-20.3713

>  <SCORE.INTER.norm>
-0.385394

>  <SCORE.INTRA>
-1.58794

>  <SCORE.INTRA.DIHEDRAL>
-6.97393

>  <SCORE.INTRA.DIHEDRAL.0>
13.9704

>  <SCORE.INTRA.POLAR>
0

>  <SCORE.INTRA.POLAR.0>
0

>  <SCORE.INTRA.REPUL>
0

>  <SCORE.INTRA.REPUL.0>
0

>  <SCORE.INTRA.SOLV>
2.19124

>  <SCORE.INTRA.SOLV.lig_0>
-70.9758

>  <SCORE.INTRA.VDW>
0.803412

>  <SCORE.INTRA.VDW.0>
-2.70686

>  <SCORE.INTRA.norm>
-0.0588125

>  <SCORE.RESTR>
0

>  <SCORE.RESTR.CAVITY>
0

>  <SCORE.RESTR.norm>
0

>  <SCORE.SYSTEM>
0

>  <SCORE.SYSTEM.CONST>
0

>  <SCORE.SYSTEM.DIHEDRAL>
0

>  <SCORE.SYSTEM.SOLV>
0

>  <SCORE.SYSTEM.norm>
0

>  <SCORE.heavy>
27

>  <SCORE.norm>
-0.444207

>  <RMSD>
13.220

$$$$
ligand
 OpenBabel11021811473D
libRbt.so/2013.1/901 2013/11/27
 27 29  0  0  0  0  0  0  0  0999 V2000
   47.4297   52.1272   27.5150 N   0  0  0  0  0  0  0  0  0  0  0  0
   47.9970   53.1006   26.5846 C   0  0  2  0  0  0  0  0  0  0  0  0
   47.7831   52.7503   25.1106 C   0  0  0  0  0  0  0  0  0  0  0  0
   47.6116   51.6147   24.8139 O   0  0  0  0  0  0  0  0  0  0  0  0
   49.4484   53.5202   26.8987 C   0  0  0  0  0  0  0  0  0  0  0  0
   50.5841   52.4626   26.8157 C   0  0  0  0  0  0  0  0  0  0  0  0
   51.3068   52.3563   25.4464 C   0  0  2  0  0  0  0  0  0  0  0  0
   50.3997   52.0229   24.3482 N   0  0  0  0  0  0  0  0  0  0  0  0
   52.5577   51.4266   25.5114 C   0  0  0  0  0  0  0  0  0  0  0  0
   53.5631   51.4407   24.3109 C   0  0  1  0  0  0  0  0  0  0  0  0
   54.7890   50.6558   24.4024 O   0  0  0  0  0  0  0  0  0  0  0  0
   52.9864   51.0994   22.9085 C   0  0  1  0  0  0  0  0  0  0  0  0
   52.0493   52.0165   22.3290 O   0  0  0  0  0  0  0  0  0  0  0  0
   54.2122   50.6283   22.0662 C   0  0  1  0  0  0  0  0  0  0  0  0
   54.6659   51.4680   21.0318 O   0  0  0  0  0  0  0  0  0  0  0  0
   55.2059   50.1748   23.1404 C   0  0  2  0  0  0  0  0  0  0  0  0
   47.3203   53.7587   24.2419 O   0  0  0  0  0  0  0  0  0  0  0  0
   55.0428   45.5596   20.2838 N   0  0  0  0  0  0  0  0  0  0  0  0
   54.7809   46.8552   19.8238 C   0  0  0  0  0  0  0  0  0  0  0  0
   54.8727   47.9894   20.7405 N   0  0  0  0  0  0  0  0  0  0  0  0
   55.2167   47.7878   22.0505 C   0  0  0  0  0  0  0  0  0  0  0  0
   55.4768   46.4805   22.5056 C   0  0  0  0  0  0  0  0  0  0  0  0
   55.3844   45.3505   21.5918 C   0  0  0  0  0  0  0  0  0  0  0  0
   55.6552   43.9917   22.0625 N   0  0  0  0  0  0  0  0  0  0  0  0
   55.8099   46.5552   23.9072 N   0  0  0  0  0  0  0  0  0  0  0  0
   55.7461   47.9147   24.2935 C   0  0  0  0  0  0  0  0  0  0  0  0
   55.3823   48.6938   23.1574 N   0  0  0  0  0  0  0  0  0  0  0  0
  2  1  1  1  0  0  0
  2  3  1  0  0  0  0
  2  5  1  0  0  0  0
  3  4  1  0  0  0  0
  3 17  1  0  0  0  0
  5  6  1  0  0  0  0
  7  6  1  1  0  0  0
  7  8  1  0  0  0  0
  7  9  1  0  0  0  0
 10  9  1  1  0  0  0
 10 11  1  0  0  0  0
 10 12  1  0  0  0  0
 11 16  1  0  0  0  0
 12 13  1  6  0  0  0
 12 14  1  0  0  0  0
 14 15  1  1  0  0  0
 14 16  1  0  0  0  0
 16 27  1  1  0  0  0
 18 19  2  0  0  0  0
 18 23  1  0  0  0  0
 19 20  1  0  0  0  0
 20 21  2  0  0  0  0
 21 22  1  0  0  0  0
 21 27  1  0  0  0  0
 22 23  2  0  0  0  0
 22 25  1  0  0  0  0
 23 24  1  0  0  0  0
 25 26  2  0  0  0  0
 26 27  1  0  0  0  0
M  END
>  <CHROM.1>
-24.36774452,64.54151118,91.93077004,-59.03891727,-167.55150951,175.29368594
150.60534010,52.62115226,50.09718441,23.65018271,2.50611908,0.54853635,-0.03387332

>  <Name>
ligand

>  <RI>
0

>  <Rbt.Current_Directory>
/home/itssahil/PROJECTS/Mol_Feturizer/New_Systems/rnas/3GX2

>  <Rbt.Executable>
rbdock ($Id: //depot/dev/client3/rdock/2013.1/src/exe/rbdock.cxx#4 $)

>  <Rbt.Library>
libRbt.so (2013.1, Build901 2013/11/27)

>  <Rbt.Parameter_File>
/export/apps/rDock/src/rDock_2013.1_src/data/scripts/dock_solv.prm

>  <Rbt.Receptor>
prm/blind_docking_80.prm

>  <SCORE>
-10.6255

>  <SCORE.INTER>
-11.4161

>  <SCORE.INTER.CONST>
1

>  <SCORE.INTER.POLAR>
0

>  <SCORE.INTER.ROT>
7

>  <SCORE.INTER.SOLV>
20.9793

>  <SCORE.INTER.VDW>
-22.8705

>  <SCORE.INTER.norm>
-0.422818

>  <SCORE.INTRA>
0.790469

>  <SCORE.INTRA.DIHEDRAL>
-5.43956

>  <SCORE.INTRA.DIHEDRAL.0>
13.9704

>  <SCORE.INTRA.POLAR>
0

>  <SCORE.INTRA.POLAR.0>
0

>  <SCORE.INTRA.REPUL>
0

>  <SCORE.INTRA.REPUL.0>
0

>  <SCORE.INTRA.SOLV>
6.3102

>  <SCORE.INTRA.SOLV.lig_0>
-70.9758

>  <SCORE.INTRA.VDW>
0.355149

>  <SCORE.INTRA.VDW.0>
-2.70686

>  <SCORE.INTRA.norm>
0.0292766

>  <SCORE.RESTR>
6.38711e-05

>  <SCORE.RESTR.CAVITY>
6.38711e-05

>  <SCORE.RESTR.norm>
2.36559e-06

>  <SCORE.SYSTEM>
0

>  <SCORE.SYSTEM.CONST>
0

>  <SCORE.SYSTEM.DIHEDRAL>
0

>  <SCORE.SYSTEM.SOLV>
0

>  <SCORE.SYSTEM.norm>
0

>  <SCORE.heavy>
27

>  <SCORE.norm>
-0.393539

>  <RMSD>
13.262

$$$$
ligand
 OpenBabel11021811473D
libRbt.so/2013.1/901 2013/11/27
 27 29  0  0  0  0  0  0  0  0999 V2000
   52.6493   56.6269   14.8996 N   0  0  0  0  0  0  0  0  0  0  0  0
   53.1064   55.7263   15.9556 C   0  0  2  0  0  0  0  0  0  0  0  0
   54.6254   55.7017   16.1380 C   0  0  0  0  0  0  0  0  0  0  0  0
   55.0693   55.3178   17.1687 O   0  0  0  0  0  0  0  0  0  0  0  0
   52.4827   54.3156   15.9123 C   0  0  0  0  0  0  0  0  0  0  0  0
   52.6957   53.3493   17.1106 C   0  0  0  0  0  0  0  0  0  0  0  0
   52.2278   53.8770   18.4930 C   0  0  2  0  0  0  0  0  0  0  0  0
   52.6058   52.9948   19.5969 N   0  0  0  0  0  0  0  0  0  0  0  0
   50.7135   54.2511   18.4988 C   0  0  0  0  0  0  0  0  0  0  0  0
   50.0797   54.7836   19.8282 C   0  0  1  0  0  0  0  0  0  0  0  0
   49.0189   55.7822   19.7587 O   0  0  0  0  0  0  0  0  0  0  0  0
   49.5469   53.7188   20.8273 C   0  0  1  0  0  0  0  0  0  0  0  0
   50.5016   52.8522   21.4539 O   0  0  0  0  0  0  0  0  0  0  0  0
   48.5065   54.4732   21.7120 C   0  0  1  0  0  0  0  0  0  0  0  0
   48.8386   54.7216   23.0569 O   0  0  0  0  0  0  0  0  0  0  0  0
   48.0966   55.6505   20.8216 C   0  0  2  0  0  0  0  0  0  0  0  0
   55.4385   55.6587   14.9879 O   0  0  0  0  0  0  0  0  0  0  0  0
   44.3955   57.3600   17.2347 N   0  0  0  0  0  0  0  0  0  0  0  0
   45.7157   57.8036   17.3727 C   0  0  0  0  0  0  0  0  0  0  0  0
   46.5774   57.2269   18.4023 N   0  0  0  0  0  0  0  0  0  0  0  0
   46.0961   56.2505   19.2330 C   0  0  0  0  0  0  0  0  0  0  0  0
   44.7656   55.8111   19.0886 C   0  0  0  0  0  0  0  0  0  0  0  0
   43.9073   56.3868   18.0628 C   0  0  0  0  0  0  0  0  0  0  0  0
   42.5251   55.9310   17.9106 N   0  0  0  0  0  0  0  0  0  0  0  0
   44.5236   54.7916   20.0800 N   0  0  0  0  0  0  0  0  0  0  0  0
   45.7151   54.6219   20.8236 C   0  0  0  0  0  0  0  0  0  0  0  0
   46.7010   55.5148   20.3130 N   0  0  0  0  0  0  0  0  0  0  0  0
  2  1  1  6  0  0  0
  2  3  1  0  0  0  0
  2  5  1  0  0  0  0
  3  4  1  0  0  0  0
  3 17  1  0  0  0  0
  5  6  1  0  0  0  0
  7  6  1  6  0  0  0
  7  8  1  0  0  0  0
  7  9  1  0  0  0  0
 10  9  1  6  0  0  0
 10 11  1  0  0  0  0
 10 12  1  0  0  0  0
 11 16  1  0  0  0  0
 12 13  1  1  0  0  0
 12 14  1  0  0  0  0
 14 15  1  1  0  0  0
 14 16  1  0  0  0  0
 16 27  1  6  0  0  0
 18 19  2  0  0  0  0
 18 23  1  0  0  0  0
 19 20  1  0  0  0  0
 20 21  2  0  0  0  0
 21 22  1  0  0  0  0
 21 27  1  0  0  0  0
 22 23  2  0  0  0  0
 22 25  1  0  0  0  0
 23 24  1  0  0  0  0
 25 26  2  0  0  0  0
 26 27  1  0  0  0  0
M  END
>  <CHROM.1>
159.23957546,-169.55675702,56.99303688,-172.84714753,179.21600646,146.18030116
-41.64532686,49.29648966,55.21268496,18.69601026,0.21328980,0.23225078,-1.11917142

>  <Name>
ligand

>  <RI>
0

>  <Rbt.Current_Directory>
/home/itssahil/PROJECTS/Mol_Feturizer/New_Systems/rnas/3GX2

>  <Rbt.Executable>
rbdock ($Id: //depot/dev/client3/rdock/2013.1/src/exe/rbdock.cxx#4 $)

>  <Rbt.Library>
libRbt.so (2013.1, Build901 2013/11/27)

>  <Rbt.Parameter_File>
/export/apps/rDock/src/rDock_2013.1_src/data/scripts/dock_solv.prm

>  <Rbt.Receptor>
prm/blind_docking_100.prm

>  <SCORE>
-14.7639

>  <SCORE.INTER>
-13.8543

>  <SCORE.INTER.CONST>
1

>  <SCORE.INTER.POLAR>
0

>  <SCORE.INTER.ROT>
7

>  <SCORE.INTER.SOLV>
18.592

>  <SCORE.INTER.VDW>
-23.7002

>  <SCORE.INTER.norm>
-0.513122

>  <SCORE.INTRA>
-0.909595

>  <SCORE.INTRA.DIHEDRAL>
-5.39488

>  <SCORE.INTRA.DIHEDRAL.0>
13.9704

>  <SCORE.INTRA.POLAR>
0

>  <SCORE.INTRA.POLAR.0>
0

>  <SCORE.INTRA.REPUL>
0

>  <SCORE.INTRA.REPUL.0>
0

>  <SCORE.INTRA.SOLV>
2.06232

>  <SCORE.INTRA.SOLV.lig_0>
-70.9758

>  <SCORE.INTRA.VDW>
0.756682

>  <SCORE.INTRA.VDW.0>
-2.70686

>  <SCORE.INTRA.norm>
-0.0336887

>  <SCORE.RESTR>
0

>  <SCORE.RESTR.CAVITY>
0

>  <SCORE.RESTR.norm>
0

>  <SCORE.SYSTEM>
0

>  <SCORE.SYSTEM.CONST>
0

>  <SCORE.SYSTEM.DIHEDRAL>
0

>  <SCORE.SYSTEM.SOLV>
0

>  <SCORE.SYSTEM.norm>
0

>  <SCORE.heavy>
27

>  <SCORE.norm>
-0.546811

>  <RMSD>
13.294

$$$$
ligand
 OpenBabel11021811473D
libRbt.so/2013.1/901 2013/11/27
 27 29  0  0  0  0  0  0  0  0999 V2000
   50.8184   54.8271   21.9079 N   0  0  0  0  0  0  0  0  0  0  0  0
   49.9003   54.5315   23.0054 C   0  0  2  0  0  0  0  0  0  0  0  0
   48.4956   55.1070   22.8136 C   0  0  0  0  0  0  0  0  0  0  0  0
   48.3831   56.1923   22.3485 O   0  0  0  0  0  0  0  0  0  0  0  0
   50.4732   54.7996   24.4129 C   0  0  0  0  0  0  0  0  0  0  0  0
   51.6337   53.9143   24.9464 C   0  0  0  0  0  0  0  0  0  0  0  0
   51.3041   52.4086   25.1275 C   0  0  2  0  0  0  0  0  0  0  0  0
   50.3485   52.1608   26.2071 N   0  0  0  0  0  0  0  0  0  0  0  0
   52.5904   51.5329   25.2351 C   0  0  0  0  0  0  0  0  0  0  0  0
   53.6000   51.5366   24.0380 C   0  0  1  0  0  0  0  0  0  0  0  0
   54.8193   50.7422   24.1353 O   0  0  0  0  0  0  0  0  0  0  0  0
   53.0253   51.1969   22.6344 C   0  0  1  0  0  0  0  0  0  0  0  0
   52.0974   52.1202   22.0498 O   0  0  0  0  0  0  0  0  0  0  0  0
   54.2502   50.7144   21.7972 C   0  0  1  0  0  0  0  0  0  0  0  0
   54.7139   51.5484   20.7626 O   0  0  0  0  0  0  0  0  0  0  0  0
   55.2366   50.2553   22.8756 C   0  0  2  0  0  0  0  0  0  0  0  0
   47.4104   54.2123   22.7255 O   0  0  0  0  0  0  0  0  0  0  0  0
   54.2729   45.5539   20.3350 N   0  0  0  0  0  0  0  0  0  0  0  0
   53.9043   46.8381   19.9181 C   0  0  0  0  0  0  0  0  0  0  0  0
   54.2493   47.9995   20.7348 N   0  0  0  0  0  0  0  0  0  0  0  0
   54.9351   47.8347   21.9085 C   0  0  0  0  0  0  0  0  0  0  0  0
   55.3005   46.5386   22.3218 C   0  0  0  0  0  0  0  0  0  0  0  0
   54.9558   45.3815   21.5077 C   0  0  0  0  0  0  0  0  0  0  0  0
   55.3354   44.0344   21.9348 N   0  0  0  0  0  0  0  0  0  0  0  0
   56.0025   46.6531   23.5768 N   0  0  0  0  0  0  0  0  0  0  0  0
   56.0551   48.0252   23.9177 C   0  0  0  0  0  0  0  0  0  0  0  0
   55.4013   48.7730   22.8963 N   0  0  0  0  0  0  0  0  0  0  0  0
  2  1  1  6  0  0  0
  2  3  1  0  0  0  0
  2  5  1  0  0  0  0
  3  4  1  0  0  0  0
  3 17  1  0  0  0  0
  5  6  1  0  0  0  0
  7  6  1  1  0  0  0
  7  8  1  0  0  0  0
  7  9  1  0  0  0  0
 10  9  1  1  0  0  0
 10 11  1  0  0  0  0
 10 12  1  0  0  0  0
 11 16  1  0  0  0  0
 12 13  1  6  0  0  0
 12 14  1  0  0  0  0
 14 15  1  1  0  0  0
 14 16  1  0  0  0  0
 16 27  1  1  0  0  0
 18 19  2  0  0  0  0
 18 23  1  0  0  0  0
 19 20  1  0  0  0  0
 20 21  2  0  0  0  0
 21 22  1  0  0  0  0
 21 27  1  0  0  0  0
 22 23  2  0  0  0  0
 22 25  1  0  0  0  0
 23 24  1  0  0  0  0
 25 26  2  0  0  0  0
 26 27  1  0  0  0  0
M  END
>  <CHROM.1>
-39.82734503,-67.66042402,-63.15609547,-68.29313615,-59.83973649,178.85344263
134.54246345,52.86223847,50.70299357,22.82423914,2.52406066,-0.79813302,0.97860489

>  <Name>
ligand

>  <RI>
0

>  <Rbt.Current_Directory>
/home/itssahil/PROJECTS/Mol_Feturizer/New_Systems/rnas/3GX2

>  <Rbt.Executable>
rbdock ($Id: //depot/dev/client3/rdock/2013.1/src/exe/rbdock.cxx#4 $)

>  <Rbt.Library>
libRbt.so (2013.1, Build901 2013/11/27)

>  <Rbt.Parameter_File>
/export/apps/rDock/src/rDock_2013.1_src/data/scripts/dock_solv.prm

>  <Rbt.Receptor>
prm/blind_docking_80.prm

>  <SCORE>
-17.1868

>  <SCORE.INTER>
-13.6835

>  <SCORE.INTER.CONST>
1

>  <SCORE.INTER.POLAR>
0

>  <SCORE.INTER.ROT>
7

>  <SCORE.INTER.SOLV>
18.6385

>  <SCORE.INTER.VDW>
-23.6019

>  <SCORE.INTER.norm>
-0.506797

>  <SCORE.INTRA>
-3.50327

>  <SCORE.INTRA.DIHEDRAL>
-9.03356

>  <SCORE.INTRA.DIHEDRAL.0>
13.9704

>  <SCORE.INTRA.POLAR>
0

>  <SCORE.INTRA.POLAR.0>
0

>  <SCORE.INTRA.REPUL>
0

>  <SCORE.INTRA.REPUL.0>
0

>  <SCORE.INTRA.SOLV>
2.32661

>  <SCORE.INTRA.SOLV.lig_0>
-70.9758

>  <SCORE.INTRA.VDW>
-0.149797

>  <SCORE.INTRA.VDW.0>
-2.70686

>  <SCORE.INTRA.norm>
-0.129751

>  <SCORE.RESTR>
0

>  <SCORE.RESTR.CAVITY>
0

>  <SCORE.RESTR.norm>
0

>  <SCORE.SYSTEM>
0

>  <SCORE.SYSTEM.CONST>
0

>  <SCORE.SYSTEM.DIHEDRAL>
0

>  <SCORE.SYSTEM.SOLV>
0

>  <SCORE.SYSTEM.norm>
0

>  <SCORE.heavy>
27

>  <SCORE.norm>
-0.636548

>  <RMSD>
13.327

$$$$
ligand
 OpenBabel11021811473D
libRbt.so/2013.1/901 2013/11/27
 27 29  0  0  0  0  0  0  0  0999 V2000
   56.0879   46.1759   20.3673 N   0  0  0  0  0  0  0  0  0  0  0  0
   54.7645   46.7951   20.3567 C   0  0  2  0  0  0  0  0  0  0  0  0
   53.9355   46.4702   19.1123 C   0  0  0  0  0  0  0  0  0  0  0  0
   52.7530   46.5260   19.1849 O   0  0  0  0  0  0  0  0  0  0  0  0
   54.7544   48.2969   20.7112 C   0  0  0  0  0  0  0  0  0  0  0  0
   55.7095   48.8271   21.8165 C   0  0  0  0  0  0  0  0  0  0  0  0
   55.3579   48.4077   23.2687 C   0  0  2  0  0  0  0  0  0  0  0  0
   55.4627   46.9648   23.4858 N   0  0  0  0  0  0  0  0  0  0  0  0
   53.9939   49.0003   23.7391 C   0  0  0  0  0  0  0  0  0  0  0  0
   53.8604   50.5548   23.8736 C   0  0  1  0  0  0  0  0  0  0  0  0
   54.5247   51.4114   22.8978 O   0  0  0  0  0  0  0  0  0  0  0  0
   52.4198   51.1290   23.9784 C   0  0  1  0  0  0  0  0  0  0  0  0
   51.6567   50.8118   25.1498 O   0  0  0  0  0  0  0  0  0  0  0  0
   52.5393   52.6174   23.5265 C   0  0  1  0  0  0  0  0  0  0  0  0
   52.3833   53.6195   24.5024 O   0  0  0  0  0  0  0  0  0  0  0  0
   53.8100   52.6096   22.6709 C   0  0  2  0  0  0  0  0  0  0  0  0
   54.5469   46.5918   17.8485 O   0  0  0  0  0  0  0  0  0  0  0  0
   50.1021   53.9501   18.9371 N   0  0  0  0  0  0  0  0  0  0  0  0
   49.9335   53.9028   20.3257 C   0  0  0  0  0  0  0  0  0  0  0  0
   51.0501   53.5168   21.1854 N   0  0  0  0  0  0  0  0  0  0  0  0
   52.2640   53.2025   20.6351 C   0  0  0  0  0  0  0  0  0  0  0  0
   52.4246   53.2509   19.2366 C   0  0  0  0  0  0  0  0  0  0  0  0
   51.3111   53.6349   18.3803 C   0  0  0  0  0  0  0  0  0  0  0  0
   51.4763   53.6867   16.9273 N   0  0  0  0  0  0  0  0  0  0  0  0
   53.7837   52.8759   18.9315 N   0  0  0  0  0  0  0  0  0  0  0  0
   54.4393   52.5989   20.1542 C   0  0  0  0  0  0  0  0  0  0  0  0
   53.5156   52.7974   21.2207 N   0  0  0  0  0  0  0  0  0  0  0  0
  2  1  1  6  0  0  0
  2  3  1  0  0  0  0
  2  5  1  0  0  0  0
  3  4  1  0  0  0  0
  3 17  1  0  0  0  0
  5  6  1  0  0  0  0
  7  6  1  6  0  0  0
  7  8  1  0  0  0  0
  7  9  1  0  0  0  0
 10  9  1  6  0  0  0
 10 11  1  0  0  0  0
 10 12  1  0  0  0  0
 11 16  1  0  0  0  0
 12 13  1  1  0  0  0
 12 14  1  0  0  0  0
 14 15  1  1  0  0  0
 14 16  1  0  0  0  0
 16 27  1  6  0  0  0
 18 19  2  0  0  0  0
 18 23  1  0  0  0  0
 19 20  1  0  0  0  0
 20 21  2  0  0  0  0
 21 22  1  0  0  0  0
 21 27  1  0  0  0  0
 22 23  2  0  0  0  0
 22 25  1  0  0  0  0
 23 24  1  0  0  0  0
 25 26  2  0  0  0  0
 26 27  1  0  0  0  0
M  END
>  <CHROM.1>
155.16786602,-38.22002148,-70.65157431,64.60005299,-64.60304039,37.44839427
134.87236893,53.31120418,50.67178220,21.23705093,0.22616568,1.10195093,-1.87288781

>  <Name>
ligand

>  <RI>
0

>  <Rbt.Current_Directory>
/home/itssahil/PROJECTS/Mol_Feturizer/New_Systems/rnas/3GX2

>  <Rbt.Executable>
rbdock ($Id: //depot/dev/client3/rdock/2013.1/src/exe/rbdock.cxx#4 $)

>  <Rbt.Library>
libRbt.so (2013.1, Build901 2013/11/27)

>  <Rbt.Parameter_File>
/export/apps/rDock/src/rDock_2013.1_src/data/scripts/dock_solv.prm

>  <Rbt.Receptor>
prm/blind_docking_80.prm

>  <SCORE>
-13.0254

>  <SCORE.INTER>
-12.1603

>  <SCORE.INTER.CONST>
1

>  <SCORE.INTER.POLAR>
0

>  <SCORE.INTER.ROT>
7

>  <SCORE.INTER.SOLV>
21.0263

>  <SCORE.INTER.VDW>
-23.3823

>  <SCORE.INTER.norm>
-0.45038

>  <SCORE.INTRA>
-0.865167

>  <SCORE.INTRA.DIHEDRAL>
-5.51771

>  <SCORE.INTRA.DIHEDRAL.0>
13.9704

>  <SCORE.INTRA.POLAR>
0

>  <SCORE.INTRA.POLAR.0>
0

>  <SCORE.INTRA.REPUL>
0

>  <SCORE.INTRA.REPUL.0>
0

>  <SCORE.INTRA.SOLV>
3.10649

>  <SCORE.INTRA.SOLV.lig_0>
-70.9758

>  <SCORE.INTRA.VDW>
0.34044

>  <SCORE.INTRA.VDW.0>
-2.70686

>  <SCORE.INTRA.norm>
-0.0320432

>  <SCORE.RESTR>
0

>  <SCORE.RESTR.CAVITY>
0

>  <SCORE.RESTR.norm>
0

>  <SCORE.SYSTEM>
0

>  <SCORE.SYSTEM.CONST>
0

>  <SCORE.SYSTEM.DIHEDRAL>
0

>  <SCORE.SYSTEM.SOLV>
0

>  <SCORE.SYSTEM.norm>
0

>  <SCORE.heavy>
27

>  <SCORE.norm>
-0.482423

>  <RMSD>
13.398

$$$$
ligand
 OpenBabel11021811473D
libRbt.so/2013.1/901 2013/11/27
 27 29  0  0  0  0  0  0  0  0999 V2000
   55.7500   46.7970   18.6884 N   0  0  0  0  0  0  0  0  0  0  0  0
   55.1054   46.8356   19.9992 C   0  0  2  0  0  0  0  0  0  0  0  0
   53.9939   45.7992   20.1766 C   0  0  0  0  0  0  0  0  0  0  0  0
   53.7793   45.3742   21.2630 O   0  0  0  0  0  0  0  0  0  0  0  0
   54.6944   48.2457   20.4723 C   0  0  0  0  0  0  0  0  0  0  0  0
   54.2489   48.4570   21.9461 C   0  0  0  0  0  0  0  0  0  0  0  0
   55.3587   48.2830   23.0169 C   0  0  2  0  0  0  0  0  0  0  0  0
   55.8858   46.9196   23.0742 N   0  0  0  0  0  0  0  0  0  0  0  0
   54.9228   48.8303   24.4111 C   0  0  0  0  0  0  0  0  0  0  0  0
   54.3748   50.2945   24.5017 C   0  0  1  0  0  0  0  0  0  0  0  0
   54.9764   51.3304   23.6699 O   0  0  0  0  0  0  0  0  0  0  0  0
   52.8437   50.4836   24.3121 C   0  0  1  0  0  0  0  0  0  0  0  0
   51.9730   49.9363   25.3108 O   0  0  0  0  0  0  0  0  0  0  0  0
   52.6664   51.9720   23.8791 C   0  0  1  0  0  0  0  0  0  0  0  0
   52.0735   52.8610   24.7950 O   0  0  0  0  0  0  0  0  0  0  0  0
   54.0390   52.3192   23.2940 C   0  0  2  0  0  0  0  0  0  0  0  0
   52.9730   45.7377   19.2072 O   0  0  0  0  0  0  0  0  0  0  0  0
   51.3338   54.3414   19.0419 N   0  0  0  0  0  0  0  0  0  0  0  0
   50.9802   54.4243   20.3935 C   0  0  0  0  0  0  0  0  0  0  0  0
   51.8339   53.8163   21.4117 N   0  0  0  0  0  0  0  0  0  0  0  0
   52.9821   53.1657   21.0462 C   0  0  0  0  0  0  0  0  0  0  0  0
   53.3296   53.0852   19.6836 C   0  0  0  0  0  0  0  0  0  0  0  0
   52.4780   53.6908   18.6694 C   0  0  0  0  0  0  0  0  0  0  0  0
   52.8379   53.6090   17.2534 N   0  0  0  0  0  0  0  0  0  0  0  0
   54.5688   52.3537   19.5828 N   0  0  0  0  0  0  0  0  0  0  0  0
   54.9636   51.9921   20.8924 C   0  0  0  0  0  0  0  0  0  0  0  0
   53.9952   52.4875   21.8125 N   0  0  0  0  0  0  0  0  0  0  0  0
  2  1  1  6  0  0  0
  2  3  1  0  0  0  0
  2  5  1  0  0  0  0
  3  4  1  0  0  0  0
  3 17  1  0  0  0  0
  5  6  1  0  0  0  0
  7  6  1  6  0  0  0
  7  8  1  0  0  0  0
  7  9  1  0  0  0  0
 10  9  1  6  0  0  0
 10 11  1  0  0  0  0
 10 12  1  0  0  0  0
 11 16  1  0  0  0  0
 12 13  1  1  0  0  0
 12 14  1  0  0  0  0
 14 15  1  1  0  0  0
 14 16  1  0  0  0  0
 16 27  1  6  0  0  0
 18 19  2  0  0  0  0
 18 23  1  0  0  0  0
 19 20  1  0  0  0  0
 20 21  2  0  0  0  0
 21 22  1  0  0  0  0
 21 27  1  0  0  0  0
 22 23  2  0  0  0  0
 22 25  1  0  0  0  0
 23 24  1  0  0  0  0
 25 26  2  0  0  0  0
 26 27  1  0  0  0  0
M  END
>  <CHROM.1>
150.38858076,-168.55612813,67.93563083,-64.14744129,-52.48393953,-37.57905303
165.20439578,53.66378705,50.40403750,21.59909849,0.00191721,1.27460373,-1.63477489

>  <Name>
ligand

>  <RI>
0

>  <Rbt.Current_Directory>
/home/itssahil/PROJECTS/Mol_Feturizer/New_Systems/rnas/3GX2

>  <Rbt.Executable>
rbdock ($Id: //depot/dev/client3/rdock/2013.1/src/exe/rbdock.cxx#4 $)

>  <Rbt.Library>
libRbt.so (2013.1, Build901 2013/11/27)

>  <Rbt.Parameter_File>
/export/apps/rDock/src/rDock_2013.1_src/data/scripts/dock_solv.prm

>  <Rbt.Receptor>
prm/blind_docking_80.prm

>  <SCORE>
-16.027

>  <SCORE.INTER>
-13.2627

>  <SCORE.INTER.CONST>
1

>  <SCORE.INTER.POLAR>
0

>  <SCORE.INTER.ROT>
7

>  <SCORE.INTER.SOLV>
20.8141

>  <SCORE.INTER.VDW>
-24.0465

>  <SCORE.INTER.norm>
-0.491212

>  <SCORE.INTRA>
-2.7643

>  <SCORE.INTRA.DIHEDRAL>
-6.3634

>  <SCORE.INTRA.DIHEDRAL.0>
13.9704

>  <SCORE.INTRA.POLAR>
0

>  <SCORE.INTRA.POLAR.0>
0

>  <SCORE.INTRA.REPUL>
0

>  <SCORE.INTRA.REPUL.0>
0

>  <SCORE.INTRA.SOLV>
2.42276

>  <SCORE.INTRA.SOLV.lig_0>
-70.9758

>  <SCORE.INTRA.VDW>
-0.793975

>  <SCORE.INTRA.VDW.0>
-2.70686

>  <SCORE.INTRA.norm>
-0.102381

>  <SCORE.RESTR>
0

>  <SCORE.RESTR.CAVITY>
0

>  <SCORE.RESTR.norm>
0

>  <SCORE.SYSTEM>
0

>  <SCORE.SYSTEM.CONST>
0

>  <SCORE.SYSTEM.DIHEDRAL>
0

>  <SCORE.SYSTEM.SOLV>
0

>  <SCORE.SYSTEM.norm>
0

>  <SCORE.heavy>
27

>  <SCORE.norm>
-0.593594

>  <RMSD>
13.416

$$$$
ligand
 OpenBabel11021811473D
libRbt.so/2013.1/901 2013/11/27
 27 29  0  0  0  0  0  0  0  0999 V2000
   55.9469   46.0770   19.5649 N   0  0  0  0  0  0  0  0  0  0  0  0
   54.5764   46.2937   20.0227 C   0  0  2  0  0  0  0  0  0  0  0  0
   53.5129   46.0067   18.9607 C   0  0  0  0  0  0  0  0  0  0  0  0
   52.9629   44.9559   18.9746 O   0  0  0  0  0  0  0  0  0  0  0  0
   54.3476   47.6315   20.7570 C   0  0  0  0  0  0  0  0  0  0  0  0
   54.9979   47.8590   22.1500 C   0  0  0  0  0  0  0  0  0  0  0  0
   54.9889   49.3224   22.6668 C   0  0  2  0  0  0  0  0  0  0  0  0
   55.7310   49.4895   23.9164 N   0  0  0  0  0  0  0  0  0  0  0  0
   53.5482   49.9173   22.7257 C   0  0  0  0  0  0  0  0  0  0  0  0
   53.3832   51.4533   22.9825 C   0  0  1  0  0  0  0  0  0  0  0  0
   54.0364   52.3976   22.0830 O   0  0  0  0  0  0  0  0  0  0  0  0
   51.9310   51.9895   23.1216 C   0  0  1  0  0  0  0  0  0  0  0  0
   51.1671   51.5654   24.2582 O   0  0  0  0  0  0  0  0  0  0  0  0
   52.0238   53.5113   22.7905 C   0  0  1  0  0  0  0  0  0  0  0  0
   51.8421   54.4292   23.8419 O   0  0  0  0  0  0  0  0  0  0  0  0
   53.2996   53.5961   21.9467 C   0  0  2  0  0  0  0  0  0  0  0  0
   52.8809   47.0981   18.3321 O   0  0  0  0  0  0  0  0  0  0  0  0
   49.7442   55.5959   18.3625 N   0  0  0  0  0  0  0  0  0  0  0  0
   49.5921   55.5015   19.7506 C   0  0  0  0  0  0  0  0  0  0  0  0
   50.6611   54.9301   20.5665 N   0  0  0  0  0  0  0  0  0  0  0  0
   51.8144   54.4875   19.9756 C   0  0  0  0  0  0  0  0  0  0  0  0
   51.9585   54.5844   18.5778 C   0  0  0  0  0  0  0  0  0  0  0  0
   50.8924   55.1532   17.7652 C   0  0  0  0  0  0  0  0  0  0  0  0
   51.0408   55.2556   16.3130 N   0  0  0  0  0  0  0  0  0  0  0  0
   53.2515   54.0503   18.2257 N   0  0  0  0  0  0  0  0  0  0  0  0
   53.8834   53.6290   19.4193 C   0  0  0  0  0  0  0  0  0  0  0  0
   53.0104   53.8931   20.5139 N   0  0  0  0  0  0  0  0  0  0  0  0
  2  1  1  6  0  0  0
  2  3  1  0  0  0  0
  2  5  1  0  0  0  0
  3  4  1  0  0  0  0
  3 17  1  0  0  0  0
  5  6  1  0  0  0  0
  7  6  1  1  0  0  0
  7  8  1  0  0  0  0
  7  9  1  0  0  0  0
 10  9  1  6  0  0  0
 10 11  1  0  0  0  0
 10 12  1  0  0  0  0
 11 16  1  0  0  0  0
 12 13  1  1  0  0  0
 12 14  1  0  0  0  0
 14 15  1  1  0  0  0
 14 16  1  0  0  0  0
 16 27  1  6  0  0  0
 18 19  2  0  0  0  0
 18 23  1  0  0  0  0
 19 20  1  0  0  0  0
 20 21  2  0  0  0  0
 21 22  1  0  0  0  0
 21 27  1  0  0  0  0
 22 23  2  0  0  0  0
 22 25  1  0  0  0  0
 23 24  1  0  0  0  0
 25 26  2  0  0  0  0
 26 27  1  0  0  0  0
M  END
>  <CHROM.1>
98.02623415,-68.14949958,166.66722668,-174.27337873,-169.41935778,56.60411889
143.83920749,52.86861031,51.40514162,20.73184292,0.41868520,1.17227443,-2.11311441

>  <Name>
ligand

>  <RI>
0

>  <Rbt.Current_Directory>
/home/itssahil/PROJECTS/Mol_Feturizer/New_Systems/rnas/3GX2

>  <Rbt.Executable>
rbdock ($Id: //depot/dev/client3/rdock/2013.1/src/exe/rbdock.cxx#4 $)

>  <Rbt.Library>
libRbt.so (2013.1, Build901 2013/11/27)

>  <Rbt.Parameter_File>
/export/apps/rDock/src/rDock_2013.1_src/data/scripts/dock_solv.prm

>  <Rbt.Receptor>
prm/blind_docking_80.prm

>  <SCORE>
-15.3504

>  <SCORE.INTER>
-12.583

>  <SCORE.INTER.CONST>
1

>  <SCORE.INTER.POLAR>
0

>  <SCORE.INTER.ROT>
7

>  <SCORE.INTER.SOLV>
20.9413

>  <SCORE.INTER.VDW>
-23.6357

>  <SCORE.INTER.norm>
-0.466036

>  <SCORE.INTRA>
-2.76741

>  <SCORE.INTRA.DIHEDRAL>
-7.93624

>  <SCORE.INTRA.DIHEDRAL.0>
13.9704

>  <SCORE.INTRA.POLAR>
0

>  <SCORE.INTRA.POLAR.0>
0

>  <SCORE.INTRA.REPUL>
0

>  <SCORE.INTRA.REPUL.0>
0

>  <SCORE.INTRA.SOLV>
0.0105259

>  <SCORE.INTRA.SOLV.lig_0>
-70.9758

>  <SCORE.INTRA.VDW>
1.19545

>  <SCORE.INTRA.VDW.0>
-2.70686

>  <SCORE.INTRA.norm>
-0.102497

>  <SCORE.RESTR>
0

>  <SCORE.RESTR.CAVITY>
0

>  <SCORE.RESTR.norm>
0

>  <SCORE.SYSTEM>
0

>  <SCORE.SYSTEM.CONST>
0

>  <SCORE.SYSTEM.DIHEDRAL>
0

>  <SCORE.SYSTEM.SOLV>
0

>  <SCORE.SYSTEM.norm>
0

>  <SCORE.heavy>
27

>  <SCORE.norm>
-0.568533

>  <RMSD>
13.467

$$$$
ligand
 OpenBabel11021811473D
libRbt.so/2013.1/901 2013/11/27
 27 29  0  0  0  0  0  0  0  0999 V2000
   53.2493   55.1570   14.9490 N   0  0  0  0  0  0  0  0  0  0  0  0
   52.9088   54.7211   16.3015 C   0  0  2  0  0  0  0  0  0  0  0  0
   54.1145   54.2854   17.1368 C   0  0  0  0  0  0  0  0  0  0  0  0
   54.9428   55.0910   17.4050 O   0  0  0  0  0  0  0  0  0  0  0  0
   51.7319   53.7261   16.3792 C   0  0  0  0  0  0  0  0  0  0  0  0
   51.1696   53.3154   17.7686 C   0  0  0  0  0  0  0  0  0  0  0  0
   50.4563   54.4397   18.5658 C   0  0  2  0  0  0  0  0  0  0  0  0
   51.1655   55.7178   18.5062 N   0  0  0  0  0  0  0  0  0  0  0  0
   50.1082   53.9997   20.0213 C   0  0  0  0  0  0  0  0  0  0  0  0
   48.6105   54.0402   20.4769 C   0  0  1  0  0  0  0  0  0  0  0  0
   47.9384   55.3294   20.5930 O   0  0  0  0  0  0  0  0  0  0  0  0
   47.6119   53.1508   19.6847 C   0  0  1  0  0  0  0  0  0  0  0  0
   47.7593   51.7282   19.7830 O   0  0  0  0  0  0  0  0  0  0  0  0
   46.2105   53.7906   19.9312 C   0  0  1  0  0  0  0  0  0  0  0  0
   45.2947   53.0874   20.7361 O   0  0  0  0  0  0  0  0  0  0  0  0
   46.5592   55.2366   20.2978 C   0  0  2  0  0  0  0  0  0  0  0  0
   53.9896   53.1405   17.9487 O   0  0  0  0  0  0  0  0  0  0  0  0
   42.4971   57.4387   17.4453 N   0  0  0  0  0  0  0  0  0  0  0  0
   42.4032   56.4744   18.4553 C   0  0  0  0  0  0  0  0  0  0  0  0
   43.6113   55.9916   19.1204 N   0  0  0  0  0  0  0  0  0  0  0  0
   44.8374   56.4823   18.7586 C   0  0  0  0  0  0  0  0  0  0  0  0
   44.9232   57.4513   17.7398 C   0  0  0  0  0  0  0  0  0  0  0  0
   43.7188   57.9314   17.0769 C   0  0  0  0  0  0  0  0  0  0  0  0
   43.8058   58.9387   16.0190 N   0  0  0  0  0  0  0  0  0  0  0  0
   46.3147   57.7873   17.5613 N   0  0  0  0  0  0  0  0  0  0  0  0
   47.0659   57.0131   18.4766 C   0  0  0  0  0  0  0  0  0  0  0  0
   46.1691   56.2002   19.2283 N   0  0  0  0  0  0  0  0  0  0  0  0
  2  1  1  6  0  0  0
  2  3  1  0  0  0  0
  2  5  1  0  0  0  0
  3  4  1  0  0  0  0
  3 17  1  0  0  0  0
  5  6  1  0  0  0  0
  7  6  1  1  0  0  0
  7  8  1  0  0  0  0
  7  9  1  0  0  0  0
 10  9  1  6  0  0  0
 10 11  1  0  0  0  0
 10 12  1  0  0  0  0
 11 16  1  0  0  0  0
 12 13  1  1  0  0  0
 12 14  1  0  0  0  0
 14 15  1  1  0  0  0
 14 16  1  0  0  0  0
 16 27  1  6  0  0  0
 18 19  2  0  0  0  0
 18 23  1  0  0  0  0
 19 20  1  0  0  0  0
 20 21  2  0  0  0  0
 21 22  1  0  0  0  0
 21 27  1  0  0  0  0
 22 23  2  0  0  0  0
 22 25  1  0  0  0  0
 23 24  1  0  0  0  0
 25 26  2  0  0  0  0
 26 27  1  0  0  0  0
M  END
>  <CHROM.1>
63.99537510,-173.02361924,67.19853779,-42.51229916,-121.69167345,-66.61509048
-173.55607058,48.23703197,55.17422543,18.40602015,-0.11867412,0.26677873
-0.75836151

>  <Name>
ligand

>  <RI>
0

>  <Rbt.Current_Directory>
/home/itssahil/PROJECTS/Mol_Feturizer/New_Systems/rnas/3GX2

>  <Rbt.Executable>
rbdock ($Id: //depot/dev/client3/rdock/2013.1/src/exe/rbdock.cxx#4 $)

>  <Rbt.Library>
libRbt.so (2013.1, Build901 2013/11/27)

>  <Rbt.Parameter_File>
/export/apps/rDock/src/rDock_2013.1_src/data/scripts/dock_solv.prm

>  <Rbt.Receptor>
prm/blind_docking_80.prm

>  <SCORE>
-16.2442

>  <SCORE.INTER>
-17.3896

>  <SCORE.INTER.CONST>
1

>  <SCORE.INTER.POLAR>
0

>  <SCORE.INTER.ROT>
7

>  <SCORE.INTER.SOLV>
17.603

>  <SCORE.INTER.VDW>
-25.7274

>  <SCORE.INTER.norm>
-0.644057

>  <SCORE.INTRA>
1.14536

>  <SCORE.INTRA.DIHEDRAL>
-2.57501

>  <SCORE.INTRA.DIHEDRAL.0>
13.9704

>  <SCORE.INTRA.POLAR>
0

>  <SCORE.INTRA.POLAR.0>
0

>  <SCORE.INTRA.REPUL>
0

>  <SCORE.INTRA.REPUL.0>
0

>  <SCORE.INTRA.SOLV>
3.14057

>  <SCORE.INTRA.SOLV.lig_0>
-70.9758

>  <SCORE.INTRA.VDW>
0.862577

>  <SCORE.INTRA.VDW.0>
-2.70686

>  <SCORE.INTRA.norm>
0.0424206

>  <SCORE.RESTR>
0

>  <SCORE.RESTR.CAVITY>
0

>  <SCORE.RESTR.norm>
0

>  <SCORE.SYSTEM>
0

>  <SCORE.SYSTEM.CONST>
0

>  <SCORE.SYSTEM.DIHEDRAL>
0

>  <SCORE.SYSTEM.SOLV>
0

>  <SCORE.SYSTEM.norm>
0

>  <SCORE.heavy>
27

>  <SCORE.norm>
-0.601637

>  <RMSD>
13.557

$$$$
ligand
 OpenBabel11021811473D
libRbt.so/2013.1/901 2013/11/27
 27 29  0  0  0  0  0  0  0  0999 V2000
   54.7356   50.9855   21.8647 N   0  0  0  0  0  0  0  0  0  0  0  0
   54.6710   52.1044   22.8022 C   0  0  2  0  0  0  0  0  0  0  0  0
   56.0341   52.5449   23.3401 C   0  0  0  0  0  0  0  0  0  0  0  0
   56.1088   53.5699   23.9323 O   0  0  0  0  0  0  0  0  0  0  0  0
   53.6070   51.9548   23.9097 C   0  0  0  0  0  0  0  0  0  0  0  0
   52.1020   51.9238   23.5236 C   0  0  0  0  0  0  0  0  0  0  0  0
   51.5281   53.2437   22.9430 C   0  0  2  0  0  0  0  0  0  0  0  0
   51.2644   54.2507   23.9709 N   0  0  0  0  0  0  0  0  0  0  0  0
   50.3080   52.9927   22.0041 C   0  0  0  0  0  0  0  0  0  0  0  0
   49.6247   54.2246   21.3201 C   0  0  1  0  0  0  0  0  0  0  0  0
   50.4609   55.2518   20.7097 O   0  0  0  0  0  0  0  0  0  0  0  0
   48.5389   53.9203   20.2504 C   0  0  1  0  0  0  0  0  0  0  0  0
   47.3232   53.2997   20.6885 O   0  0  0  0  0  0  0  0  0  0  0  0
   48.4639   55.2046   19.3676 C   0  0  1  0  0  0  0  0  0  0  0  0
   47.3121   56.0076   19.4648 O   0  0  0  0  0  0  0  0  0  0  0  0
   49.8358   55.8487   19.5913 C   0  0  2  0  0  0  0  0  0  0  0  0
   57.0208   51.5616   23.5531 O   0  0  0  0  0  0  0  0  0  0  0  0
   52.2285   52.6174   15.9416 N   0  0  0  0  0  0  0  0  0  0  0  0
   51.4225   52.2337   17.0195 C   0  0  0  0  0  0  0  0  0  0  0  0
   50.8577   53.2472   17.9077 N   0  0  0  0  0  0  0  0  0  0  0  0
   51.1141   54.5741   17.6868 C   0  0  0  0  0  0  0  0  0  0  0  0
   51.9279   54.9515   16.6008 C   0  0  0  0  0  0  0  0  0  0  0  0
   52.4910   53.9409   15.7165 C   0  0  0  0  0  0  0  0  0  0  0  0
   53.3358   54.3311   14.5871 N   0  0  0  0  0  0  0  0  0  0  0  0
   52.0334   56.3901   16.6027 N   0  0  0  0  0  0  0  0  0  0  0  0
   51.2807   56.8761   17.6976 C   0  0  0  0  0  0  0  0  0  0  0  0
   50.7022   55.7671   18.3799 N   0  0  0  0  0  0  0  0  0  0  0  0
  2  1  1  1  0  0  0
  2  3  1  0  0  0  0
  2  5  1  0  0  0  0
  3  4  1  0  0  0  0
  3 17  1  0  0  0  0
  5  6  1  0  0  0  0
  7  6  1  1  0  0  0
  7  8  1  0  0  0  0
  7  9  1  0  0  0  0
 10  9  1  6  0  0  0
 10 11  1  0  0  0  0
 10 12  1  0  0  0  0
 11 16  1  0  0  0  0
 12 13  1  1  0  0  0
 12 14  1  0  0  0  0
 14 15  1  1  0  0  0
 14 16  1  0  0  0  0
 16 27  1  6  0  0  0
 18 19  2  0  0  0  0
 18 23  1  0  0  0  0
 19 20  1  0  0  0  0
 20 21  2  0  0  0  0
 21 22  1  0  0  0  0
 21 27  1  0  0  0  0
 22 23  2  0  0  0  0
 22 25  1  0  0  0  0
 23 24  1  0  0  0  0
 25 26  2  0  0  0  0
 26 27  1  0  0  0  0
M  END
>  <CHROM.1>
168.06580614,-64.83617136,-66.78036972,-77.28722170,-179.16981175,45.03977319
65.03922039,51.72486212,53.82888838,20.15379439,-0.94203423,0.30671459,-1.36929319

>  <Name>
ligand

>  <RI>
0

>  <Rbt.Current_Directory>
/home/itssahil/PROJECTS/Mol_Feturizer/New_Systems/rnas/3GX2

>  <Rbt.Executable>
rbdock ($Id: //depot/dev/client3/rdock/2013.1/src/exe/rbdock.cxx#4 $)

>  <Rbt.Library>
libRbt.so (2013.1, Build901 2013/11/27)

>  <Rbt.Parameter_File>
/export/apps/rDock/src/rDock_2013.1_src/data/scripts/dock_solv.prm

>  <Rbt.Receptor>
prm/blind_docking_100.prm

>  <SCORE>
-9.58347

>  <SCORE.INTER>
-6.56695

>  <SCORE.INTER.CONST>
1

>  <SCORE.INTER.POLAR>
0

>  <SCORE.INTER.ROT>
7

>  <SCORE.INTER.SOLV>
18.2009

>  <SCORE.INTER.VDW>
-18.7116

>  <SCORE.INTER.norm>
-0.24322

>  <SCORE.INTRA>
-3.01652

>  <SCORE.INTRA.DIHEDRAL>
-7.12865

>  <SCORE.INTRA.DIHEDRAL.0>
13.9704

>  <SCORE.INTRA.POLAR>
0

>  <SCORE.INTRA.POLAR.0>
0

>  <SCORE.INTRA.REPUL>
0

>  <SCORE.INTRA.REPUL.0>
0

>  <SCORE.INTRA.SOLV>
1.60925

>  <SCORE.INTRA.SOLV.lig_0>
-70.9758

>  <SCORE.INTRA.VDW>
-0.256823

>  <SCORE.INTRA.VDW.0>
-2.70686

>  <SCORE.INTRA.norm>
-0.111723

>  <SCORE.RESTR>
0

>  <SCORE.RESTR.CAVITY>
0

>  <SCORE.RESTR.norm>
0

>  <SCORE.SYSTEM>
0

>  <SCORE.SYSTEM.CONST>
0

>  <SCORE.SYSTEM.DIHEDRAL>
0

>  <SCORE.SYSTEM.SOLV>
0

>  <SCORE.SYSTEM.norm>
0

>  <SCORE.heavy>
27

>  <SCORE.norm>
-0.354943

>  <RMSD>
13.596

$$$$
ligand
 OpenBabel11021811473D
libRbt.so/2013.1/901 2013/11/27
 27 29  0  0  0  0  0  0  0  0999 V2000
   50.6305   53.9387   20.0701 N   0  0  0  0  0  0  0  0  0  0  0  0
   51.9397   54.5401   20.3134 C   0  0  2  0  0  0  0  0  0  0  0  0
   52.9691   54.2537   19.2182 C   0  0  0  0  0  0  0  0  0  0  0  0
   52.9114   53.2208   18.6380 O   0  0  0  0  0  0  0  0  0  0  0  0
   52.4960   54.3164   21.7352 C   0  0  0  0  0  0  0  0  0  0  0  0
   51.6241   54.6950   22.9647 C   0  0  0  0  0  0  0  0  0  0  0  0
   52.2736   54.4493   24.3526 C   0  0  2  0  0  0  0  0  0  0  0  0
   53.4048   55.3383   24.6172 N   0  0  0  0  0  0  0  0  0  0  0  0
   52.6094   52.9442   24.5875 C   0  0  0  0  0  0  0  0  0  0  0  0
   54.0904   52.4705   24.4018 C   0  0  1  0  0  0  0  0  0  0  0  0
   54.3954   51.0464   24.4806 O   0  0  0  0  0  0  0  0  0  0  0  0
   54.8271   52.9559   23.1221 C   0  0  1  0  0  0  0  0  0  0  0  0
   55.1023   54.3574   22.9993 O   0  0  0  0  0  0  0  0  0  0  0  0
   55.9818   51.9302   22.9015 C   0  0  1  0  0  0  0  0  0  0  0  0
   57.3026   52.3640   23.1213 O   0  0  0  0  0  0  0  0  0  0  0  0
   55.4776   50.6891   23.6446 C   0  0  2  0  0  0  0  0  0  0  0  0
   53.6167   55.3444   18.6044 O   0  0  0  0  0  0  0  0  0  0  0  0
   55.5521   45.3458   22.6797 N   0  0  0  0  0  0  0  0  0  0  0  0
   56.0722   46.0174   23.7920 C   0  0  0  0  0  0  0  0  0  0  0  0
   55.9624   47.4714   23.8859 N   0  0  0  0  0  0  0  0  0  0  0  0
   55.3493   48.1799   22.8873 C   0  0  0  0  0  0  0  0  0  0  0  0
   54.8303   47.4964   21.7703 C   0  0  0  0  0  0  0  0  0  0  0  0
   54.9407   46.0474   21.6771 C   0  0  0  0  0  0  0  0  0  0  0  0
   54.4013   45.3355   20.5180 N   0  0  0  0  0  0  0  0  0  0  0  0
   54.2481   48.4727   20.8822 N   0  0  0  0  0  0  0  0  0  0  0  0
   54.4221   49.7479   21.4698 C   0  0  0  0  0  0  0  0  0  0  0  0
   55.1001   49.5874   22.7126 N   0  0  0  0  0  0  0  0  0  0  0  0
  2  1  1  6  0  0  0
  2  3  1  0  0  0  0
  2  5  1  0  0  0  0
  3  4  1  0  0  0  0
  3 17  1  0  0  0  0
  5  6  1  0  0  0  0
  7  6  1  6  0  0  0
  7  8  1  0  0  0  0
  7  9  1  0  0  0  0
 10  9  1  6  0  0  0
 10 11  1  0  0  0  0
 10 12  1  0  0  0  0
 11 16  1  0  0  0  0
 12 13  1  1  0  0  0
 12 14  1  0  0  0  0
 14 15  1  1  0  0  0
 14 16  1  0  0  0  0
 16 27  1  6  0  0  0
 18 19  2  0  0  0  0
 18 23  1  0  0  0  0
 19 20  1  0  0  0  0
 20 21  2  0  0  0  0
 21 22  1  0  0  0  0
 21 27  1  0  0  0  0
 22 23  2  0  0  0  0
 22 25  1  0  0  0  0
 23 24  1  0  0  0  0
 25 26  2  0  0  0  0
 26 27  1  0  0  0  0
M  END
>  <CHROM.1>
-32.09204156,-53.08237766,-179.33027304,67.93722548,101.14938584,-173.66041602
-96.90803823,54.15949150,51.32701888,22.27305839,2.38555188,-1.12714743,0.64825836

>  <Name>
ligand

>  <RI>
0

>  <Rbt.Current_Directory>
/home/itssahil/PROJECTS/Mol_Feturizer/New_Systems/rnas/3GX2

>  <Rbt.Executable>
rbdock ($Id: //depot/dev/client3/rdock/2013.1/src/exe/rbdock.cxx#4 $)

>  <Rbt.Library>
libRbt.so (2013.1, Build901 2013/11/27)

>  <Rbt.Parameter_File>
/export/apps/rDock/src/rDock_2013.1_src/data/scripts/dock_solv.prm

>  <Rbt.Receptor>
prm/blind_docking_100.prm

>  <SCORE>
-10.3483

>  <SCORE.INTER>
-10.8792

>  <SCORE.INTER.CONST>
1

>  <SCORE.INTER.POLAR>
0

>  <SCORE.INTER.ROT>
7

>  <SCORE.INTER.SOLV>
14.5811

>  <SCORE.INTER.VDW>
-20.3798

>  <SCORE.INTER.norm>
-0.402933

>  <SCORE.INTRA>
0.530915

>  <SCORE.INTRA.DIHEDRAL>
-4.79253

>  <SCORE.INTRA.DIHEDRAL.0>
13.9704

>  <SCORE.INTRA.POLAR>
0

>  <SCORE.INTRA.POLAR.0>
0

>  <SCORE.INTRA.REPUL>
0

>  <SCORE.INTRA.REPUL.0>
0

>  <SCORE.INTRA.SOLV>
3.42638

>  <SCORE.INTRA.SOLV.lig_0>
-70.9758

>  <SCORE.INTRA.VDW>
1.21399

>  <SCORE.INTRA.VDW.0>
-2.70686

>  <SCORE.INTRA.norm>
0.0196635

>  <SCORE.RESTR>
0

>  <SCORE.RESTR.CAVITY>
0

>  <SCORE.RESTR.norm>
0

>  <SCORE.SYSTEM>
0

>  <SCORE.SYSTEM.CONST>
0

>  <SCORE.SYSTEM.DIHEDRAL>
0

>  <SCORE.SYSTEM.SOLV>
0

>  <SCORE.SYSTEM.norm>
0

>  <SCORE.heavy>
27

>  <SCORE.norm>
-0.38327

>  <RMSD>
13.622

$$$$
ligand
 OpenBabel11021811473D
libRbt.so/2013.1/901 2013/11/27
 27 29  0  0  0  0  0  0  0  0999 V2000
   56.1964   45.8334   18.3248 N   0  0  0  0  0  0  0  0  0  0  0  0
   55.2217   46.1228   19.3741 C   0  0  2  0  0  0  0  0  0  0  0  0
   53.7662   45.9402   18.9388 C   0  0  0  0  0  0  0  0  0  0  0  0
   53.0953   45.1475   19.5118 O   0  0  0  0  0  0  0  0  0  0  0  0
   55.4625   47.4476   20.1279 C   0  0  0  0  0  0  0  0  0  0  0  0
   54.4820   47.8736   21.2558 C   0  0  0  0  0  0  0  0  0  0  0  0
   54.7733   49.2462   21.9188 C   0  0  2  0  0  0  0  0  0  0  0  0
   55.8478   49.1834   22.9095 N   0  0  0  0  0  0  0  0  0  0  0  0
   53.4780   49.9245   22.4622 C   0  0  0  0  0  0  0  0  0  0  0  0
   53.5017   51.4650   22.7428 C   0  0  1  0  0  0  0  0  0  0  0  0
   54.1333   52.3534   21.7738 O   0  0  0  0  0  0  0  0  0  0  0  0
   52.1388   52.1415   23.0603 C   0  0  1  0  0  0  0  0  0  0  0  0
   51.4793   51.7778   24.2801 O   0  0  0  0  0  0  0  0  0  0  0  0
   52.3444   53.6514   22.7258 C   0  0  1  0  0  0  0  0  0  0  0  0
   52.3853   54.5659   23.7949 O   0  0  0  0  0  0  0  0  0  0  0  0
   53.5105   53.6216   21.7329 C   0  0  2  0  0  0  0  0  0  0  0  0
   53.1354   46.9942   18.2482 O   0  0  0  0  0  0  0  0  0  0  0  0
   49.5652   55.6109   18.5763 N   0  0  0  0  0  0  0  0  0  0  0  0
   49.5424   55.4470   19.9661 C   0  0  0  0  0  0  0  0  0  0  0  0
   50.7039   54.8905   20.6562 N   0  0  0  0  0  0  0  0  0  0  0  0
   51.8175   54.5298   19.9456 C   0  0  0  0  0  0  0  0  0  0  0  0
   51.8314   54.6964   18.5469 C   0  0  0  0  0  0  0  0  0  0  0  0
   50.6732   55.2503   17.8597 C   0  0  0  0  0  0  0  0  0  0  0  0
   50.6861   55.4249   16.4069 N   0  0  0  0  0  0  0  0  0  0  0  0
   53.1093   54.2403   18.0572 N   0  0  0  0  0  0  0  0  0  0  0  0
   53.8633   53.7960   19.1687 C   0  0  0  0  0  0  0  0  0  0  0  0
   53.0814   53.9690   20.3472 N   0  0  0  0  0  0  0  0  0  0  0  0
  2  1  1  6  0  0  0
  2  3  1  0  0  0  0
  2  5  1  0  0  0  0
  3  4  1  0  0  0  0
  3 17  1  0  0  0  0
  5  6  1  0  0  0  0
  7  6  1  1  0  0  0
  7  8  1  0  0  0  0
  7  9  1  0  0  0  0
 10  9  1  6  0  0  0
 10 11  1  0  0  0  0
 10 12  1  0  0  0  0
 11 16  1  0  0  0  0
 12 13  1  1  0  0  0
 12 14  1  0  0  0  0
 14 15  1  1  0  0  0
 14 16  1  0  0  0  0
 16 27  1  6  0  0  0
 18 19  2  0  0  0  0
 18 23  1  0  0  0  0
 19 20  1  0  0  0  0
 20 21  2  0  0  0  0
 21 22  1  0  0  0  0
 21 27  1  0  0  0  0
 22 23  2  0  0  0  0
 22 25  1  0  0  0  0
 23 24  1  0  0  0  0
 25 26  2  0  0  0  0
 26 27  1  0  0  0  0
M  END
>  <CHROM.1>
119.66565516,179.28044892,-177.71534264,-79.40042471,-160.97400976,43.29269959
134.98617379,52.97955597,51.42301111,20.51695632,0.40884680,1.14824913,-2.02122832

>  <Name>
ligand

>  <RI>
0

>  <Rbt.Current_Directory>
/home/itssahil/PROJECTS/Mol_Feturizer/New_Systems/rnas/3GX2

>  <Rbt.Executable>
rbdock ($Id: //depot/dev/client3/rdock/2013.1/src/exe/rbdock.cxx#4 $)

>  <Rbt.Library>
libRbt.so (2013.1, Build901 2013/11/27)

>  <Rbt.Parameter_File>
/export/apps/rDock/src/rDock_2013.1_src/data/scripts/dock_solv.prm

>  <Rbt.Receptor>
prm/blind_docking_80.prm

>  <SCORE>
-13.9489

>  <SCORE.INTER>
-12.0356

>  <SCORE.INTER.CONST>
1

>  <SCORE.INTER.POLAR>
0

>  <SCORE.INTER.ROT>
7

>  <SCORE.INTER.SOLV>
23.4557

>  <SCORE.INTER.VDW>
-24.109

>  <SCORE.INTER.norm>
-0.445765

>  <SCORE.INTRA>
-1.91325

>  <SCORE.INTRA.DIHEDRAL>
-5.56369

>  <SCORE.INTRA.DIHEDRAL.0>
13.9704

>  <SCORE.INTRA.POLAR>
0

>  <SCORE.INTRA.POLAR.0>
0

>  <SCORE.INTRA.REPUL>
0

>  <SCORE.INTRA.REPUL.0>
0

>  <SCORE.INTRA.SOLV>
0.29394

>  <SCORE.INTRA.SOLV.lig_0>
-70.9758

>  <SCORE.INTRA.VDW>
0.721622

>  <SCORE.INTRA.VDW.0>
-2.70686

>  <SCORE.INTRA.norm>
-0.0708612

>  <SCORE.RESTR>
0

>  <SCORE.RESTR.CAVITY>
0

>  <SCORE.RESTR.norm>
0

>  <SCORE.SYSTEM>
0

>  <SCORE.SYSTEM.CONST>
0

>  <SCORE.SYSTEM.DIHEDRAL>
0

>  <SCORE.SYSTEM.SOLV>
0

>  <SCORE.SYSTEM.norm>
0

>  <SCORE.heavy>
27

>  <SCORE.norm>
-0.516626

>  <RMSD>
13.650

$$$$
ligand
 OpenBabel11021811473D
libRbt.so/2013.1/901 2013/11/27
 27 29  0  0  0  0  0  0  0  0999 V2000
   54.5944   48.0157   18.0469 N   0  0  0  0  0  0  0  0  0  0  0  0
   54.6044   46.8568   18.9367 C   0  0  2  0  0  0  0  0  0  0  0  0
   53.2980   46.0602   18.9355 C   0  0  0  0  0  0  0  0  0  0  0  0
   52.4963   46.2819   18.0899 O   0  0  0  0  0  0  0  0  0  0  0  0
   55.1340   47.1417   20.3578 C   0  0  0  0  0  0  0  0  0  0  0  0
   54.3523   48.1153   21.2832 C   0  0  0  0  0  0  0  0  0  0  0  0
   54.9669   48.3477   22.6892 C   0  0  2  0  0  0  0  0  0  0  0  0
   55.4360   47.1124   23.3168 N   0  0  0  0  0  0  0  0  0  0  0  0
   54.0277   49.1849   23.6113 C   0  0  0  0  0  0  0  0  0  0  0  0
   54.1584   50.7453   23.5928 C   0  0  1  0  0  0  0  0  0  0  0  0
   54.8031   51.3903   22.4546 O   0  0  0  0  0  0  0  0  0  0  0  0
   52.8543   51.5613   23.8151 C   0  0  1  0  0  0  0  0  0  0  0  0
   52.2246   51.4796   25.1004 O   0  0  0  0  0  0  0  0  0  0  0  0
   53.1389   52.9638   23.1937 C   0  0  1  0  0  0  0  0  0  0  0  0
   53.2806   54.0579   24.0675 O   0  0  0  0  0  0  0  0  0  0  0  0
   54.2589   52.6679   22.1912 C   0  0  2  0  0  0  0  0  0  0  0  0
   53.2736   44.8107   19.5866 O   0  0  0  0  0  0  0  0  0  0  0  0
   50.1219   53.7776   18.8533 N   0  0  0  0  0  0  0  0  0  0  0  0
   50.1166   53.8010   20.2527 C   0  0  0  0  0  0  0  0  0  0  0  0
   51.3314   53.4707   20.9945 N   0  0  0  0  0  0  0  0  0  0  0  0
   52.4778   53.1396   20.3227 C   0  0  0  0  0  0  0  0  0  0  0  0
   52.4740   53.1167   18.9143 C   0  0  0  0  0  0  0  0  0  0  0  0
   51.2628   53.4452   18.1758 C   0  0  0  0  0  0  0  0  0  0  0  0
   51.2571   53.4229   16.7126 N   0  0  0  0  0  0  0  0  0  0  0  0
   53.7941   52.7391   18.4719 N   0  0  0  0  0  0  0  0  0  0  0  0
   54.5915   52.5322   19.6220 C   0  0  0  0  0  0  0  0  0  0  0  0
   53.7951   52.7772   20.7778 N   0  0  0  0  0  0  0  0  0  0  0  0
  2  1  1  1  0  0  0
  2  3  1  0  0  0  0
  2  5  1  0  0  0  0
  3  4  1  0  0  0  0
  3 17  1  0  0  0  0
  5  6  1  0  0  0  0
  7  6  1  6  0  0  0
  7  8  1  0  0  0  0
  7  9  1  0  0  0  0
 10  9  1  6  0  0  0
 10 11  1  0  0  0  0
 10 12  1  0  0  0  0
 11 16  1  0  0  0  0
 12 13  1  1  0  0  0
 12 14  1  0  0  0  0
 14 15  1  1  0  0  0
 14 16  1  0  0  0  0
 16 27  1  6  0  0  0
 18 19  2  0  0  0  0
 18 23  1  0  0  0  0
 19 20  1  0  0  0  0
 20 21  2  0  0  0  0
 21 22  1  0  0  0  0
 21 27  1  0  0  0  0
 22 23  2  0  0  0  0
 22 25  1  0  0  0  0
 23 24  1  0  0  0  0
 25 26  2  0  0  0  0
 26 27  1  0  0  0  0
M  END
>  <CHROM.1>
12.49904771,64.36663747,-179.56416635,-43.31010207,-89.38586096,19.69396973
124.38888644,53.27999788,50.62232272,20.87297527,0.80177418,1.16124093,-2.30810899

>  <Name>
ligand

>  <RI>
0

>  <Rbt.Current_Directory>
/home/itssahil/PROJECTS/Mol_Feturizer/New_Systems/rnas/3GX2

>  <Rbt.Executable>
rbdock ($Id: //depot/dev/client3/rdock/2013.1/src/exe/rbdock.cxx#4 $)

>  <Rbt.Library>
libRbt.so (2013.1, Build901 2013/11/27)

>  <Rbt.Parameter_File>
/export/apps/rDock/src/rDock_2013.1_src/data/scripts/dock_solv.prm

>  <Rbt.Receptor>
prm/blind_docking_80.prm

>  <SCORE>
-14.3468

>  <SCORE.INTER>
-14.467

>  <SCORE.INTER.CONST>
1

>  <SCORE.INTER.POLAR>
0

>  <SCORE.INTER.ROT>
7

>  <SCORE.INTER.SOLV>
24.4344

>  <SCORE.INTER.VDW>
-26.0561

>  <SCORE.INTER.norm>
-0.535814

>  <SCORE.INTRA>
0.111856

>  <SCORE.INTRA.DIHEDRAL>
-1.35275

>  <SCORE.INTRA.DIHEDRAL.0>
13.9704

>  <SCORE.INTRA.POLAR>
0

>  <SCORE.INTRA.POLAR.0>
0

>  <SCORE.INTRA.REPUL>
0

>  <SCORE.INTRA.REPUL.0>
0

>  <SCORE.INTRA.SOLV>
0.381643

>  <SCORE.INTRA.SOLV.lig_0>
-70.9758

>  <SCORE.INTRA.VDW>
0.597407

>  <SCORE.INTRA.VDW.0>
-2.70686

>  <SCORE.INTRA.norm>
0.0041428

>  <SCORE.RESTR>
0.00830056

>  <SCORE.RESTR.CAVITY>
0.00830056

>  <SCORE.RESTR.norm>
0.000307428

>  <SCORE.SYSTEM>
0

>  <SCORE.SYSTEM.CONST>
0

>  <SCORE.SYSTEM.DIHEDRAL>
0

>  <SCORE.SYSTEM.SOLV>
0

>  <SCORE.SYSTEM.norm>
0

>  <SCORE.heavy>
27

>  <SCORE.norm>
-0.531364

>  <RMSD>
13.705

$$$$
ligand
 OpenBabel11021811473D
libRbt.so/2013.1/901 2013/11/27
 27 29  0  0  0  0  0  0  0  0999 V2000
   54.7337   55.4390   17.1865 N   0  0  0  0  0  0  0  0  0  0  0  0
   53.8766   54.5450   16.4111 C   0  0  2  0  0  0  0  0  0  0  0  0
   54.1029   54.6221   14.8998 C   0  0  0  0  0  0  0  0  0  0  0  0
   54.8850   55.4089   14.4801 O   0  0  0  0  0  0  0  0  0  0  0  0
   52.3837   54.5889   16.7989 C   0  0  0  0  0  0  0  0  0  0  0  0
   51.9665   54.2882   18.2654 C   0  0  0  0  0  0  0  0  0  0  0  0
   50.4549   54.4426   18.5810 C   0  0  2  0  0  0  0  0  0  0  0  0
   49.9489   55.7860   18.2994 N   0  0  0  0  0  0  0  0  0  0  0  0
   50.0984   53.9418   20.0146 C   0  0  0  0  0  0  0  0  0  0  0  0
   48.6028   53.9970   20.4758 C   0  0  1  0  0  0  0  0  0  0  0  0
   47.9439   55.2928   20.5943 O   0  0  0  0  0  0  0  0  0  0  0  0
   47.5925   53.1175   19.6874 C   0  0  1  0  0  0  0  0  0  0  0  0
   47.7263   51.6935   19.7852 O   0  0  0  0  0  0  0  0  0  0  0  0
   46.1985   53.7711   19.9391 C   0  0  1  0  0  0  0  0  0  0  0  0
   45.2788   53.0770   20.7474 O   0  0  0  0  0  0  0  0  0  0  0  0
   46.5628   55.2136   20.3043 C   0  0  2  0  0  0  0  0  0  0  0  0
   53.7809   53.4968   14.1151 O   0  0  0  0  0  0  0  0  0  0  0  0
   42.5123   57.4527   17.4641 N   0  0  0  0  0  0  0  0  0  0  0  0
   42.4127   56.4889   18.4741 C   0  0  0  0  0  0  0  0  0  0  0  0
   43.6184   55.9952   19.1356 N   0  0  0  0  0  0  0  0  0  0  0  0
   44.8478   56.4751   18.7704 C   0  0  0  0  0  0  0  0  0  0  0  0
   44.9392   57.4435   17.7517 C   0  0  0  0  0  0  0  0  0  0  0  0
   43.7373   57.9346   17.0923 C   0  0  0  0  0  0  0  0  0  0  0  0
   43.8302   58.9414   16.0344 N   0  0  0  0  0  0  0  0  0  0  0  0
   46.3331   57.7672   17.5692 N   0  0  0  0  0  0  0  0  0  0  0  0
   47.0801   56.9860   18.4821 C   0  0  0  0  0  0  0  0  0  0  0  0
   46.1782   56.1810   19.2361 N   0  0  0  0  0  0  0  0  0  0  0  0
  2  1  1  1  0  0  0
  2  3  1  0  0  0  0
  2  5  1  0  0  0  0
  3  4  1  0  0  0  0
  3 17  1  0  0  0  0
  5  6  1  0  0  0  0
  7  6  1  1  0  0  0
  7  8  1  0  0  0  0
  7  9  1  0  0  0  0
 10  9  1  6  0  0  0
 10 11  1  0  0  0  0
 10 12  1  0  0  0  0
 11 16  1  0  0  0  0
 12 13  1  1  0  0  0
 12 14  1  0  0  0  0
 14 15  1  1  0  0  0
 14 16  1  0  0  0  0
 16 27  1  6  0  0  0
 18 19  2  0  0  0  0
 18 23  1  0  0  0  0
 19 20  1  0  0  0  0
 20 21  2  0  0  0  0
 21 22  1  0  0  0  0
 21 27  1  0  0  0  0
 22 23  2  0  0  0  0
 22 25  1  0  0  0  0
 23 24  1  0  0  0  0
 25 26  2  0  0  0  0
 26 27  1  0  0  0  0
M  END
>  <CHROM.1>
-2.99319734,-57.13091696,176.32653586,-58.34960318,-178.52085073,-63.72891955
-173.63167023,48.32539634,55.28018662,18.15741926,0.05693923,0.31628061,-0.83673242

>  <Name>
ligand

>  <RI>
0

>  <Rbt.Current_Directory>
/home/itssahil/PROJECTS/Mol_Feturizer/New_Systems/rnas/3GX2

>  <Rbt.Executable>
rbdock ($Id: //depot/dev/client3/rdock/2013.1/src/exe/rbdock.cxx#4 $)

>  <Rbt.Library>
libRbt.so (2013.1, Build901 2013/11/27)

>  <Rbt.Parameter_File>
/export/apps/rDock/src/rDock_2013.1_src/data/scripts/dock_solv.prm

>  <Rbt.Receptor>
prm/blind_docking_100.prm

>  <SCORE>
-20.5292

>  <SCORE.INTER>
-17.3793

>  <SCORE.INTER.CONST>
1

>  <SCORE.INTER.POLAR>
0

>  <SCORE.INTER.ROT>
7

>  <SCORE.INTER.SOLV>
18.8194

>  <SCORE.INTER.VDW>
-26.126

>  <SCORE.INTER.norm>
-0.643677

>  <SCORE.INTRA>
-3.1499

>  <SCORE.INTRA.DIHEDRAL>
-9.10921

>  <SCORE.INTRA.DIHEDRAL.0>
13.9704

>  <SCORE.INTRA.POLAR>
0

>  <SCORE.INTRA.POLAR.0>
0

>  <SCORE.INTRA.REPUL>
0

>  <SCORE.INTRA.REPUL.0>
0

>  <SCORE.INTRA.SOLV>
2.83351

>  <SCORE.INTRA.SOLV.lig_0>
-70.9758

>  <SCORE.INTRA.VDW>
-0.0120447

>  <SCORE.INTRA.VDW.0>
-2.70686

>  <SCORE.INTRA.norm>
-0.116663

>  <SCORE.RESTR>
0

>  <SCORE.RESTR.CAVITY>
0

>  <SCORE.RESTR.norm>
0

>  <SCORE.SYSTEM>
0

>  <SCORE.SYSTEM.CONST>
0

>  <SCORE.SYSTEM.DIHEDRAL>
0

>  <SCORE.SYSTEM.SOLV>
0

>  <SCORE.SYSTEM.norm>
0

>  <SCORE.heavy>
27

>  <SCORE.norm>
-0.76034

>  <RMSD>
13.727

$$$$
ligand
 OpenBabel11021811473D
libRbt.so/2013.1/901 2013/11/27
 27 29  0  0  0  0  0  0  0  0999 V2000
   52.6361   57.1569   14.5207 N   0  0  0  0  0  0  0  0  0  0  0  0
   53.2280   56.0994   15.3370 C   0  0  2  0  0  0  0  0  0  0  0  0
   53.9401   55.0136   14.5275 C   0  0  0  0  0  0  0  0  0  0  0  0
   55.0766   55.1776   14.2302 O   0  0  0  0  0  0  0  0  0  0  0  0
   52.2932   55.5252   16.4221 C   0  0  0  0  0  0  0  0  0  0  0  0
   52.8861   54.6286   17.5445 C   0  0  0  0  0  0  0  0  0  0  0  0
   51.8786   54.1392   18.6186 C   0  0  2  0  0  0  0  0  0  0  0  0
   51.0712   55.2233   19.1779 N   0  0  0  0  0  0  0  0  0  0  0  0
   52.5625   53.2590   19.7099 C   0  0  0  0  0  0  0  0  0  0  0  0
   51.9210   53.2051   21.1375 C   0  0  1  0  0  0  0  0  0  0  0  0
   51.7146   51.9094   21.7745 O   0  0  0  0  0  0  0  0  0  0  0  0
   52.5847   54.0787   22.2385 C   0  0  1  0  0  0  0  0  0  0  0  0
   52.5125   55.5034   22.0963 O   0  0  0  0  0  0  0  0  0  0  0  0
   52.1598   53.4251   23.5899 C   0  0  1  0  0  0  0  0  0  0  0  0
   51.2489   54.1232   24.4047 O   0  0  0  0  0  0  0  0  0  0  0  0
   51.8335   51.9853   23.1809 C   0  0  2  0  0  0  0  0  0  0  0  0
   53.4304   53.7006   14.5724 O   0  0  0  0  0  0  0  0  0  0  0  0
   55.3065   47.9956   21.9533 N   0  0  0  0  0  0  0  0  0  0  0  0
   54.4778   48.7032   21.0750 C   0  0  0  0  0  0  0  0  0  0  0  0
   53.5990   49.7534   21.5846 N   0  0  0  0  0  0  0  0  0  0  0  0
   53.5853   50.0489   22.9216 C   0  0  0  0  0  0  0  0  0  0  0  0
   54.4211   49.3307   23.7990 C   0  0  0  0  0  0  0  0  0  0  0  0
   55.2961   48.2837   23.2905 C   0  0  0  0  0  0  0  0  0  0  0  0
   56.1658   47.5371   24.2003 N   0  0  0  0  0  0  0  0  0  0  0  0
   54.2076   49.8383   25.1323 N   0  0  0  0  0  0  0  0  0  0  0  0
   53.2367   50.8642   25.0526 C   0  0  0  0  0  0  0  0  0  0  0  0
   52.8405   51.0109   23.6919 N   0  0  0  0  0  0  0  0  0  0  0  0
  2  1  1  6  0  0  0
  2  3  1  0  0  0  0
  2  5  1  0  0  0  0
  3  4  1  0  0  0  0
  3 17  1  0  0  0  0
  5  6  1  0  0  0  0
  7  6  1  6  0  0  0
  7  8  1  0  0  0  0
  7  9  1  0  0  0  0
 10  9  1  6  0  0  0
 10 11  1  0  0  0  0
 10 12  1  0  0  0  0
 11 16  1  0  0  0  0
 12 13  1  1  0  0  0
 12 14  1  0  0  0  0
 14 15  1  6  0  0  0
 14 16  1  0  0  0  0
 16 27  1  6  0  0  0
 18 19  2  0  0  0  0
 18 23  1  0  0  0  0
 19 20  1  0  0  0  0
 20 21  2  0  0  0  0
 21 22  1  0  0  0  0
 21 27  1  0  0  0  0
 22 23  2  0  0  0  0
 22 25  1  0  0  0  0
 23 24  1  0  0  0  0
 25 26  2  0  0  0  0
 26 27  1  0  0  0  0
M  END
>  <CHROM.1>
86.61678273,-166.79773911,177.90684057,-50.21682495,153.40173541,131.87904944
-2.70261737,53.16425042,52.59782757,20.49628856,1.71713746,0.97481909,-1.09135976

>  <Name>
ligand

>  <RI>
0

>  <Rbt.Current_Directory>
/home/itssahil/PROJECTS/Mol_Feturizer/New_Systems/rnas/3GX2

>  <Rbt.Executable>
rbdock ($Id: //depot/dev/client3/rdock/2013.1/src/exe/rbdock.cxx#4 $)

>  <Rbt.Library>
libRbt.so (2013.1, Build901 2013/11/27)

>  <Rbt.Parameter_File>
/export/apps/rDock/src/rDock_2013.1_src/data/scripts/dock_solv.prm

>  <Rbt.Receptor>
prm/blind_docking_80.prm

>  <SCORE>
-6.07571

>  <SCORE.INTER>
-7.00162

>  <SCORE.INTER.CONST>
1

>  <SCORE.INTER.POLAR>
0

>  <SCORE.INTER.ROT>
7

>  <SCORE.INTER.SOLV>
26.1629

>  <SCORE.INTER.VDW>
-21.6554

>  <SCORE.INTER.norm>
-0.259319

>  <SCORE.INTRA>
0.915548

>  <SCORE.INTRA.DIHEDRAL>
-1.54053

>  <SCORE.INTRA.DIHEDRAL.0>
13.9704

>  <SCORE.INTRA.POLAR>
0

>  <SCORE.INTRA.POLAR.0>
0

>  <SCORE.INTRA.REPUL>
0

>  <SCORE.INTRA.REPUL.0>
0

>  <SCORE.INTRA.SOLV>
1.91057

>  <SCORE.INTRA.SOLV.lig_0>
-70.9758

>  <SCORE.INTRA.VDW>
0.73053

>  <SCORE.INTRA.VDW.0>
-2.70686

>  <SCORE.INTRA.norm>
0.0339092

>  <SCORE.RESTR>
0.0103581

>  <SCORE.RESTR.CAVITY>
0.0103581

>  <SCORE.RESTR.norm>
0.000383634

>  <SCORE.SYSTEM>
0

>  <SCORE.SYSTEM.CONST>
0

>  <SCORE.SYSTEM.DIHEDRAL>
0

>  <SCORE.SYSTEM.SOLV>
0

>  <SCORE.SYSTEM.norm>
0

>  <SCORE.heavy>
27

>  <SCORE.norm>
-0.225026

>  <RMSD>
13.728

$$$$
ligand
 OpenBabel11021811473D
libRbt.so/2013.1/901 2013/11/27
 27 29  0  0  0  0  0  0  0  0999 V2000
   55.7355   45.8533   18.3683 N   0  0  0  0  0  0  0  0  0  0  0  0
   54.6142   46.1424   19.2595 C   0  0  2  0  0  0  0  0  0  0  0  0
   53.2712   45.6006   18.7654 C   0  0  0  0  0  0  0  0  0  0  0  0
   52.8045   44.6542   19.3072 O   0  0  0  0  0  0  0  0  0  0  0  0
   54.5330   47.6076   19.7365 C   0  0  0  0  0  0  0  0  0  0  0  0
   55.6025   48.1492   20.7254 C   0  0  0  0  0  0  0  0  0  0  0  0
   55.4206   47.7322   22.2092 C   0  0  2  0  0  0  0  0  0  0  0  0
   55.2938   46.2852   22.3826 N   0  0  0  0  0  0  0  0  0  0  0  0
   54.2825   48.5353   22.9113 C   0  0  0  0  0  0  0  0  0  0  0  0
   54.4997   50.0632   23.1773 C   0  0  1  0  0  0  0  0  0  0  0  0
   55.0632   50.8948   22.1199 O   0  0  0  0  0  0  0  0  0  0  0  0
   53.2732   50.8671   23.6925 C   0  0  1  0  0  0  0  0  0  0  0  0
   52.7715   50.5580   24.9994 O   0  0  0  0  0  0  0  0  0  0  0  0
   53.5740   52.3527   23.3233 C   0  0  1  0  0  0  0  0  0  0  0  0
   53.8647   53.2483   24.3694 O   0  0  0  0  0  0  0  0  0  0  0  0
   54.5694   52.2184   22.1666 C   0  0  2  0  0  0  0  0  0  0  0  0
   52.4179   46.4686   18.0554 O   0  0  0  0  0  0  0  0  0  0  0  0
   50.1174   53.8720   19.5336 N   0  0  0  0  0  0  0  0  0  0  0  0
   50.2422   53.5839   20.8975 C   0  0  0  0  0  0  0  0  0  0  0  0
   51.5273   53.1470   21.4383 N   0  0  0  0  0  0  0  0  0  0  0  0
   52.6126   53.0202   20.6129 C   0  0  0  0  0  0  0  0  0  0  0  0
   52.4779   53.3103   19.2411 C   0  0  0  0  0  0  0  0  0  0  0  0
   51.1966   53.7450   18.7027 C   0  0  0  0  0  0  0  0  0  0  0  0
   51.0550   54.0478   17.2781 N   0  0  0  0  0  0  0  0  0  0  0  0
   53.7583   53.0944   18.6128 N   0  0  0  0  0  0  0  0  0  0  0  0
   54.6636   52.6700   19.6138 C   0  0  0  0  0  0  0  0  0  0  0  0
   53.9736   52.6197   20.8594 N   0  0  0  0  0  0  0  0  0  0  0  0
  2  1  1  6  0  0  0
  2  3  1  0  0  0  0
  2  5  1  0  0  0  0
  3  4  1  0  0  0  0
  3 17  1  0  0  0  0
  5  6  1  0  0  0  0
  7  6  1  6  0  0  0
  7  8  1  0  0  0  0
  7  9  1  0  0  0  0
 10  9  1  6  0  0  0
 10 11  1  0  0  0  0
 10 12  1  0  0  0  0
 11 16  1  0  0  0  0
 12 13  1  1  0  0  0
 12 14  1  0  0  0  0
 14 15  1  1  0  0  0
 14 16  1  0  0  0  0
 16 27  1  6  0  0  0
 18 19  2  0  0  0  0
 18 23  1  0  0  0  0
 19 20  1  0  0  0  0
 20 21  2  0  0  0  0
 21 22  1  0  0  0  0
 21 27  1  0  0  0  0
 22 23  2  0  0  0  0
 22 25  1  0  0  0  0
 23 24  1  0  0  0  0
 25 26  2  0  0  0  0
 26 27  1  0  0  0  0
M  END
>  <CHROM.1>
106.48334818,-69.60468596,-77.73272121,53.13017243,-68.64441187,44.53218210
119.52234725,53.46999537,50.29297411,20.86264374,0.89730091,1.10344061,-2.40821971

>  <Name>
ligand

>  <RI>
0

>  <Rbt.Current_Directory>
/home/itssahil/PROJECTS/Mol_Feturizer/New_Systems/rnas/3GX2

>  <Rbt.Executable>
rbdock ($Id: //depot/dev/client3/rdock/2013.1/src/exe/rbdock.cxx#4 $)

>  <Rbt.Library>
libRbt.so (2013.1, Build901 2013/11/27)

>  <Rbt.Parameter_File>
/export/apps/rDock/src/rDock_2013.1_src/data/scripts/dock_solv.prm

>  <Rbt.Receptor>
prm/blind_docking_100.prm

>  <SCORE>
-16.6886

>  <SCORE.INTER>
-14.7444

>  <SCORE.INTER.CONST>
1

>  <SCORE.INTER.POLAR>
0

>  <SCORE.INTER.ROT>
7

>  <SCORE.INTER.SOLV>
20.7623

>  <SCORE.INTER.VDW>
-25.0171

>  <SCORE.INTER.norm>
-0.54609

>  <SCORE.INTRA>
-1.94414

>  <SCORE.INTRA.DIHEDRAL>
-6.51925

>  <SCORE.INTRA.DIHEDRAL.0>
13.9704

>  <SCORE.INTRA.POLAR>
0

>  <SCORE.INTRA.POLAR.0>
0

>  <SCORE.INTRA.REPUL>
0

>  <SCORE.INTRA.REPUL.0>
0

>  <SCORE.INTRA.SOLV>
1.84975

>  <SCORE.INTRA.SOLV.lig_0>
-70.9758

>  <SCORE.INTRA.VDW>
0.390614

>  <SCORE.INTRA.VDW.0>
-2.70686

>  <SCORE.INTRA.norm>
-0.072005

>  <SCORE.RESTR>
0

>  <SCORE.RESTR.CAVITY>
0

>  <SCORE.RESTR.norm>
0

>  <SCORE.SYSTEM>
0

>  <SCORE.SYSTEM.CONST>
0

>  <SCORE.SYSTEM.DIHEDRAL>
0

>  <SCORE.SYSTEM.SOLV>
0

>  <SCORE.SYSTEM.norm>
0

>  <SCORE.heavy>
27

>  <SCORE.norm>
-0.618095

>  <RMSD>
13.862

$$$$
ligand
 OpenBabel11021811473D
libRbt.so/2013.1/901 2013/11/27
 27 29  0  0  0  0  0  0  0  0999 V2000
   48.1149   53.1014   20.0501 N   0  0  0  0  0  0  0  0  0  0  0  0
   48.5954   53.8422   21.2143 C   0  0  2  0  0  0  0  0  0  0  0  0
   48.2693   55.3368   21.1787 C   0  0  0  0  0  0  0  0  0  0  0  0
   47.7934   55.7928   20.1926 O   0  0  0  0  0  0  0  0  0  0  0  0
   50.0621   53.5555   21.5985 C   0  0  0  0  0  0  0  0  0  0  0  0
   51.1825   53.7597   20.5410 C   0  0  0  0  0  0  0  0  0  0  0  0
   52.6359   53.5914   21.0583 C   0  0  2  0  0  0  0  0  0  0  0  0
   53.6405   53.8346   20.0231 N   0  0  0  0  0  0  0  0  0  0  0  0
   52.8420   52.2379   21.8059 C   0  0  0  0  0  0  0  0  0  0  0  0
   54.1696   52.0209   22.6076 C   0  0  1  0  0  0  0  0  0  0  0  0
   54.2482   50.9257   23.5676 O   0  0  0  0  0  0  0  0  0  0  0  0
   55.4793   51.9063   21.7785 C   0  0  1  0  0  0  0  0  0  0  0  0
   55.9238   53.0679   21.0655 O   0  0  0  0  0  0  0  0  0  0  0  0
   56.4826   51.1486   22.7022 C   0  0  1  0  0  0  0  0  0  0  0  0
   57.5693   51.8702   23.2306 O   0  0  0  0  0  0  0  0  0  0  0  0
   55.5558   50.3977   23.6634 C   0  0  2  0  0  0  0  0  0  0  0  0
   48.0799   56.0113   22.4013 O   0  0  0  0  0  0  0  0  0  0  0  0
   54.7943   46.3916   20.0775 N   0  0  0  0  0  0  0  0  0  0  0  0
   54.6685   47.7678   19.8560 C   0  0  0  0  0  0  0  0  0  0  0  0
   54.9128   48.7095   20.9461 N   0  0  0  0  0  0  0  0  0  0  0  0
   55.2669   48.2484   22.1859 C   0  0  0  0  0  0  0  0  0  0  0  0
   55.3895   46.8617   22.4008 C   0  0  0  0  0  0  0  0  0  0  0  0
   55.1452   45.9237   21.3141 C   0  0  0  0  0  0  0  0  0  0  0  0
   55.2730   44.4828   21.5352 N   0  0  0  0  0  0  0  0  0  0  0  0
   55.7666   46.6564   23.7780 N   0  0  0  0  0  0  0  0  0  0  0  0
   55.8676   47.9273   24.3913 C   0  0  0  0  0  0  0  0  0  0  0  0
   55.5638   48.9259   23.4214 N   0  0  0  0  0  0  0  0  0  0  0  0
  2  1  1  6  0  0  0
  2  3  1  0  0  0  0
  2  5  1  0  0  0  0
  3  4  1  0  0  0  0
  3 17  1  0  0  0  0
  5  6  1  0  0  0  0
  7  6  1  6  0  0  0
  7  8  1  0  0  0  0
  7  9  1  0  0  0  0
 10  9  1  6  0  0  0
 10 11  1  0  0  0  0
 10 12  1  0  0  0  0
 11 16  1  0  0  0  0
 12 13  1  1  0  0  0
 12 14  1  0  0  0  0
 14 15  1  1  0  0  0
 14 16  1  0  0  0  0
 16 27  1  6  0  0  0
 18 19  2  0  0  0  0
 18 23  1  0  0  0  0
 19 20  1  0  0  0  0
 20 21  2  0  0  0  0
 21 22  1  0  0  0  0
 21 27  1  0  0  0  0
 22 23  2  0  0  0  0
 22 25  1  0  0  0  0
 23 24  1  0  0  0  0
 25 26  2  0  0  0  0
 26 27  1  0  0  0  0
M  END
>  <CHROM.1>
-7.33445935,55.95858439,173.81661362,-178.33999715,-169.27173115,165.09364028
66.92638077,53.39456729,51.03463841,21.79676221,2.35389743,-0.32399940,0.13290865

>  <Name>
ligand

>  <RI>
0

>  <Rbt.Current_Directory>
/home/itssahil/PROJECTS/Mol_Feturizer/New_Systems/rnas/3GX2

>  <Rbt.Executable>
rbdock ($Id: //depot/dev/client3/rdock/2013.1/src/exe/rbdock.cxx#4 $)

>  <Rbt.Library>
libRbt.so (2013.1, Build901 2013/11/27)

>  <Rbt.Parameter_File>
/export/apps/rDock/src/rDock_2013.1_src/data/scripts/dock_solv.prm

>  <Rbt.Receptor>
prm/blind_docking_100.prm

>  <SCORE>
-15.1279

>  <SCORE.INTER>
-12.962

>  <SCORE.INTER.CONST>
1

>  <SCORE.INTER.POLAR>
0

>  <SCORE.INTER.ROT>
7

>  <SCORE.INTER.SOLV>
17.8056

>  <SCORE.INTER.VDW>
-22.8432

>  <SCORE.INTER.norm>
-0.480075

>  <SCORE.INTRA>
-2.18451

>  <SCORE.INTRA.DIHEDRAL>
-7.83997

>  <SCORE.INTRA.DIHEDRAL.0>
13.9704

>  <SCORE.INTRA.POLAR>
0

>  <SCORE.INTRA.POLAR.0>
0

>  <SCORE.INTRA.REPUL>
0

>  <SCORE.INTRA.REPUL.0>
0

>  <SCORE.INTRA.SOLV>
2.34092

>  <SCORE.INTRA.SOLV.lig_0>
-70.9758

>  <SCORE.INTRA.VDW>
0.565017

>  <SCORE.INTRA.VDW.0>
-2.70686

>  <SCORE.INTRA.norm>
-0.0809077

>  <SCORE.RESTR>
0.0186325

>  <SCORE.RESTR.CAVITY>
0.0186325

>  <SCORE.RESTR.norm>
0.000690094

>  <SCORE.SYSTEM>
0

>  <SCORE.SYSTEM.CONST>
0

>  <SCORE.SYSTEM.DIHEDRAL>
0

>  <SCORE.SYSTEM.SOLV>
0

>  <SCORE.SYSTEM.norm>
0

>  <SCORE.heavy>
27

>  <SCORE.norm>
-0.560293

>  <RMSD>
13.921

$$$$
ligand
 OpenBabel11021811473D
libRbt.so/2013.1/901 2013/11/27
 27 29  0  0  0  0  0  0  0  0999 V2000
   55.5452   57.1619   14.4778 N   0  0  0  0  0  0  0  0  0  0  0  0
   55.3748   55.8200   13.9254 C   0  0  2  0  0  0  0  0  0  0  0  0
   55.5090   55.7523   12.4027 C   0  0  0  0  0  0  0  0  0  0  0  0
   55.3469   54.7090   11.8622 O   0  0  0  0  0  0  0  0  0  0  0  0
   54.1417   55.0584   14.4551 C   0  0  0  0  0  0  0  0  0  0  0  0
   54.1092   54.5953   15.9383 C   0  0  0  0  0  0  0  0  0  0  0  0
   52.7955   53.9114   16.4019 C   0  0  2  0  0  0  0  0  0  0  0  0
   51.6741   54.8449   16.5072 N   0  0  0  0  0  0  0  0  0  0  0  0
   53.0006   53.0528   17.6879 C   0  0  0  0  0  0  0  0  0  0  0  0
   53.5355   53.7574   18.9801 C   0  0  1  0  0  0  0  0  0  0  0  0
   52.7490   54.8279   19.5823 O   0  0  0  0  0  0  0  0  0  0  0  0
   53.9187   52.8378   20.1732 C   0  0  1  0  0  0  0  0  0  0  0  0
   55.0392   51.9590   20.0078 O   0  0  0  0  0  0  0  0  0  0  0  0
   53.8481   53.7538   21.4342 C   0  0  1  0  0  0  0  0  0  0  0  0
   55.0558   54.0995   22.0690 O   0  0  0  0  0  0  0  0  0  0  0  0
   52.9012   54.8719   20.9868 C   0  0  2  0  0  0  0  0  0  0  0  0
   55.3365   56.9379   11.6608 O   0  0  0  0  0  0  0  0  0  0  0  0
   47.7092   53.3099   20.6858 N   0  0  0  0  0  0  0  0  0  0  0  0
   48.7004   53.1630   19.7088 C   0  0  0  0  0  0  0  0  0  0  0  0
   50.0555   53.6469   19.9629 N   0  0  0  0  0  0  0  0  0  0  0  0
   50.3592   54.2433   21.1576 C   0  0  0  0  0  0  0  0  0  0  0  0
   49.3552   54.3889   22.1347 C   0  0  0  0  0  0  0  0  0  0  0  0
   48.0048   53.9071   21.8805 C   0  0  0  0  0  0  0  0  0  0  0  0
   46.9606   54.0566   22.8948 N   0  0  0  0  0  0  0  0  0  0  0  0
   49.9402   55.0430   23.2797 N   0  0  0  0  0  0  0  0  0  0  0  0
   51.3012   55.2925   22.9849 C   0  0  0  0  0  0  0  0  0  0  0  0
   51.5803   54.8030   21.6763 N   0  0  0  0  0  0  0  0  0  0  0  0
  2  1  1  6  0  0  0
  2  3  1  0  0  0  0
  2  5  1  0  0  0  0
  3  4  1  0  0  0  0
  3 17  1  0  0  0  0
  5  6  1  0  0  0  0
  7  6  1  1  0  0  0
  7  8  1  0  0  0  0
  7  9  1  0  0  0  0
 10  9  1  6  0  0  0
 10 11  1  0  0  0  0
 10 12  1  0  0  0  0
 11 16  1  0  0  0  0
 12 13  1  6  0  0  0
 12 14  1  0  0  0  0
 14 15  1  6  0  0  0
 14 16  1  0  0  0  0
 16 27  1  1  0  0  0
 18 19  2  0  0  0  0
 18 23  1  0  0  0  0
 19 20  1  0  0  0  0
 20 21  2  0  0  0  0
 21 22  1  0  0  0  0
 21 27  1  0  0  0  0
 22 23  2  0  0  0  0
 22 25  1  0  0  0  0
 23 24  1  0  0  0  0
 25 26  2  0  0  0  0
 26 27  1  0  0  0  0
M  END
>  <CHROM.1>
-177.82466358,-68.55174144,176.54364079,-70.69687515,58.82274466,61.43074978
23.95921411,52.47344084,54.44642419,18.59594782,-1.02962579,-0.03846454,1.76879571

>  <Name>
ligand

>  <RI>
0

>  <Rbt.Current_Directory>
/home/itssahil/PROJECTS/Mol_Feturizer/New_Systems/rnas/3GX2

>  <Rbt.Executable>
rbdock ($Id: //depot/dev/client3/rdock/2013.1/src/exe/rbdock.cxx#4 $)

>  <Rbt.Library>
libRbt.so (2013.1, Build901 2013/11/27)

>  <Rbt.Parameter_File>
/export/apps/rDock/src/rDock_2013.1_src/data/scripts/dock_solv.prm

>  <Rbt.Receptor>
prm/blind_docking_100.prm

>  <SCORE>
-11.5707

>  <SCORE.INTER>
-7.85497

>  <SCORE.INTER.CONST>
1

>  <SCORE.INTER.POLAR>
0

>  <SCORE.INTER.ROT>
7

>  <SCORE.INTER.SOLV>
17.1424

>  <SCORE.INTER.VDW>
-19.2174

>  <SCORE.INTER.norm>
-0.290925

>  <SCORE.INTRA>
-3.71576

>  <SCORE.INTRA.DIHEDRAL>
-8.67095

>  <SCORE.INTRA.DIHEDRAL.0>
13.9704

>  <SCORE.INTRA.POLAR>
0

>  <SCORE.INTRA.POLAR.0>
0

>  <SCORE.INTRA.REPUL>
0

>  <SCORE.INTRA.REPUL.0>
0

>  <SCORE.INTRA.SOLV>
1.11535

>  <SCORE.INTRA.SOLV.lig_0>
-70.9758

>  <SCORE.INTRA.VDW>
0.0620409

>  <SCORE.INTRA.VDW.0>
-2.70686

>  <SCORE.INTRA.norm>
-0.137621

>  <SCORE.RESTR>
0

>  <SCORE.RESTR.CAVITY>
0

>  <SCORE.RESTR.norm>
0

>  <SCORE.SYSTEM>
0

>  <SCORE.SYSTEM.CONST>
0

>  <SCORE.SYSTEM.DIHEDRAL>
0

>  <SCORE.SYSTEM.SOLV>
0

>  <SCORE.SYSTEM.norm>
0

>  <SCORE.heavy>
27

>  <SCORE.norm>
-0.428545

>  <RMSD>
13.944

$$$$
ligand
 OpenBabel11021811473D
libRbt.so/2013.1/901 2013/11/27
 27 29  0  0  0  0  0  0  0  0999 V2000
   52.2238   53.2559   16.9055 N   0  0  0  0  0  0  0  0  0  0  0  0
   51.0793   54.0412   17.3619 C   0  0  2  0  0  0  0  0  0  0  0  0
   51.1447   55.5198   16.9735 C   0  0  0  0  0  0  0  0  0  0  0  0
   51.0789   55.8108   15.8255 O   0  0  0  0  0  0  0  0  0  0  0  0
   50.6995   53.8241   18.8417 C   0  0  0  0  0  0  0  0  0  0  0  0
   51.8170   53.8000   19.9213 C   0  0  0  0  0  0  0  0  0  0  0  0
   51.3328   53.6596   21.3891 C   0  0  2  0  0  0  0  0  0  0  0  0
   51.5546   54.8702   22.1800 N   0  0  0  0  0  0  0  0  0  0  0  0
   51.8881   52.3717   22.0718 C   0  0  0  0  0  0  0  0  0  0  0  0
   53.3694   52.3739   22.5800 C   0  0  1  0  0  0  0  0  0  0  0  0
   53.7717   51.4110   23.5990 O   0  0  0  0  0  0  0  0  0  0  0  0
   54.4823   52.2840   21.4987 C   0  0  1  0  0  0  0  0  0  0  0  0
   54.6318   53.3898   20.5987 O   0  0  0  0  0  0  0  0  0  0  0  0
   55.7364   51.7360   22.2478 C   0  0  1  0  0  0  0  0  0  0  0  0
   56.8185   52.6119   22.4543 O   0  0  0  0  0  0  0  0  0  0  0  0
   55.1226   51.0209   23.4556 C   0  0  2  0  0  0  0  0  0  0  0  0
   50.7983   56.4835   17.9415 O   0  0  0  0  0  0  0  0  0  0  0  0
   54.9567   46.6611   20.2226 N   0  0  0  0  0  0  0  0  0  0  0  0
   54.7607   47.9984   19.8593 C   0  0  0  0  0  0  0  0  0  0  0  0
   54.8421   49.0506   20.8699 N   0  0  0  0  0  0  0  0  0  0  0  0
   55.1120   48.7312   22.1739 C   0  0  0  0  0  0  0  0  0  0  0  0
   55.3060   47.3826   22.5314 C   0  0  0  0  0  0  0  0  0  0  0  0
   55.2240   46.3345   21.5238 C   0  0  0  0  0  0  0  0  0  0  0  0
   55.4262   44.9331   21.8932 N   0  0  0  0  0  0  0  0  0  0  0  0
   55.5692   47.3315   23.9488 N   0  0  0  0  0  0  0  0  0  0  0  0
   55.5298   48.6567   24.4426 C   0  0  0  0  0  0  0  0  0  0  0  0
   55.2500   49.5380   23.3586 N   0  0  0  0  0  0  0  0  0  0  0  0
  2  1  1  1  0  0  0
  2  3  1  0  0  0  0
  2  5  1  0  0  0  0
  3  4  1  0  0  0  0
  3 17  1  0  0  0  0
  5  6  1  0  0  0  0
  7  6  1  6  0  0  0
  7  8  1  0  0  0  0
  7  9  1  0  0  0  0
 10  9  1  6  0  0  0
 10 11  1  0  0  0  0
 10 12  1  0  0  0  0
 11 16  1  0  0  0  0
 12 13  1  1  0  0  0
 12 14  1  0  0  0  0
 14 15  1  1  0  0  0
 14 16  1  0  0  0  0
 16 27  1  6  0  0  0
 18 19  2  0  0  0  0
 18 23  1  0  0  0  0
 19 20  1  0  0  0  0
 20 21  2  0  0  0  0
 21 22  1  0  0  0  0
 21 27  1  0  0  0  0
 22 23  2  0  0  0  0
 22 25  1  0  0  0  0
 23 24  1  0  0  0  0
 25 26  2  0  0  0  0
 26 27  1  0  0  0  0
M  END
>  <CHROM.1>
66.27821970,45.04343788,176.54067172,-111.39722216,78.03964868,159.01619967
84.45266607,53.64772747,51.43336039,20.93708852,2.86661883,-1.09919725,0.71636456

>  <Name>
ligand

>  <RI>
0

>  <Rbt.Current_Directory>
/home/itssahil/PROJECTS/Mol_Feturizer/New_Systems/rnas/3GX2

>  <Rbt.Executable>
rbdock ($Id: //depot/dev/client3/rdock/2013.1/src/exe/rbdock.cxx#4 $)

>  <Rbt.Library>
libRbt.so (2013.1, Build901 2013/11/27)

>  <Rbt.Parameter_File>
/export/apps/rDock/src/rDock_2013.1_src/data/scripts/dock_solv.prm

>  <Rbt.Receptor>
prm/blind_docking_100.prm

>  <SCORE>
-12.4044

>  <SCORE.INTER>
-13.0124

>  <SCORE.INTER.CONST>
1

>  <SCORE.INTER.POLAR>
0

>  <SCORE.INTER.ROT>
7

>  <SCORE.INTER.SOLV>
18.0966

>  <SCORE.INTER.VDW>
-22.9738

>  <SCORE.INTER.norm>
-0.481942

>  <SCORE.INTRA>
0.608028

>  <SCORE.INTRA.DIHEDRAL>
-0.882037

>  <SCORE.INTRA.DIHEDRAL.0>
13.9704

>  <SCORE.INTRA.POLAR>
0

>  <SCORE.INTRA.POLAR.0>
0

>  <SCORE.INTRA.REPUL>
0

>  <SCORE.INTRA.REPUL.0>
0

>  <SCORE.INTRA.SOLV>
1.50533

>  <SCORE.INTRA.SOLV.lig_0>
-70.9758

>  <SCORE.INTRA.VDW>
0.296383

>  <SCORE.INTRA.VDW.0>
-2.70686

>  <SCORE.INTRA.norm>
0.0225196

>  <SCORE.RESTR>
0

>  <SCORE.RESTR.CAVITY>
0

>  <SCORE.RESTR.norm>
0

>  <SCORE.SYSTEM>
0

>  <SCORE.SYSTEM.CONST>
0

>  <SCORE.SYSTEM.DIHEDRAL>
0

>  <SCORE.SYSTEM.SOLV>
0

>  <SCORE.SYSTEM.norm>
0

>  <SCORE.heavy>
27

>  <SCORE.norm>
-0.459422

>  <RMSD>
14.180

$$$$
ligand
 OpenBabel11021811473D
libRbt.so/2013.1/901 2013/11/27
 27 29  0  0  0  0  0  0  0  0999 V2000
   48.0924   55.9002   23.2674 N   0  0  0  0  0  0  0  0  0  0  0  0
   48.1255   54.4795   23.6075 C   0  0  2  0  0  0  0  0  0  0  0  0
   48.1362   54.2000   25.1118 C   0  0  0  0  0  0  0  0  0  0  0  0
   48.9350   54.7569   25.7891 O   0  0  0  0  0  0  0  0  0  0  0  0
   49.1788   53.6578   22.8353 C   0  0  0  0  0  0  0  0  0  0  0  0
   49.0885   53.5631   21.2868 C   0  0  0  0  0  0  0  0  0  0  0  0
   49.3176   54.8905   20.5161 C   0  0  2  0  0  0  0  0  0  0  0  0
   48.1271   55.7398   20.4786 N   0  0  0  0  0  0  0  0  0  0  0  0
   49.9452   54.6532   19.1080 C   0  0  0  0  0  0  0  0  0  0  0  0
   51.2566   53.8031   19.0073 C   0  0  1  0  0  0  0  0  0  0  0  0
   51.6558   53.2646   17.7120 O   0  0  0  0  0  0  0  0  0  0  0  0
   52.5529   54.4425   19.5790 C   0  0  1  0  0  0  0  0  0  0  0  0
   52.6241   54.6595   20.9942 O   0  0  0  0  0  0  0  0  0  0  0  0
   53.7241   53.7027   18.8614 C   0  0  1  0  0  0  0  0  0  0  0  0
   54.5173   52.8246   19.6235 O   0  0  0  0  0  0  0  0  0  0  0  0
   53.0608   53.1800   17.5833 C   0  0  2  0  0  0  0  0  0  0  0  0
   46.9596   53.7081   25.7111 O   0  0  0  0  0  0  0  0  0  0  0  0
   56.1718   57.1638   15.5988 N   0  0  0  0  0  0  0  0  0  0  0  0
   56.0056   56.8014   16.9404 C   0  0  0  0  0  0  0  0  0  0  0  0
   55.1204   55.6942   17.2949 N   0  0  0  0  0  0  0  0  0  0  0  0
   54.4531   55.0077   16.3158 C   0  0  0  0  0  0  0  0  0  0  0  0
   54.6246   55.3801   14.9682 C   0  0  0  0  0  0  0  0  0  0  0  0
   55.5063   56.4841   14.6158 C   0  0  0  0  0  0  0  0  0  0  0  0
   55.6865   56.8718   13.2163 N   0  0  0  0  0  0  0  0  0  0  0  0
   53.8147   54.5036   14.1578 N   0  0  0  0  0  0  0  0  0  0  0  0
   53.1528   53.6034   15.0256 C   0  0  0  0  0  0  0  0  0  0  0  0
   53.5366   53.8982   16.3657 N   0  0  0  0  0  0  0  0  0  0  0  0
  2  1  1  1  0  0  0
  2  3  1  0  0  0  0
  2  5  1  0  0  0  0
  3  4  1  0  0  0  0
  3 17  1  0  0  0  0
  5  6  1  0  0  0  0
  7  6  1  6  0  0  0
  7  8  1  0  0  0  0
  7  9  1  0  0  0  0
 10  9  1  6  0  0  0
 10 11  1  0  0  0  0
 10 12  1  0  0  0  0
 11 16  1  0  0  0  0
 12 13  1  1  0  0  0
 12 14  1  0  0  0  0
 14 15  1  1  0  0  0
 14 16  1  0  0  0  0
 16 27  1  6  0  0  0
 18 19  2  0  0  0  0
 18 23  1  0  0  0  0
 19 20  1  0  0  0  0
 20 21  2  0  0  0  0
 21 22  1  0  0  0  0
 21 27  1  0  0  0  0
 22 23  2  0  0  0  0
 22 25  1  0  0  0  0
 23 24  1  0  0  0  0
 25 26  2  0  0  0  0
 26 27  1  0  0  0  0
M  END
>  <CHROM.1>
-51.05606955,-61.41612683,65.96191698,-80.88054410,-53.04832066,163.42042097
119.94055503,51.89427395,54.66526976,19.23907558,2.25790379,0.27683535,1.47450805

>  <Name>
ligand

>  <RI>
0

>  <Rbt.Current_Directory>
/home/itssahil/PROJECTS/Mol_Feturizer/New_Systems/rnas/3GX2

>  <Rbt.Executable>
rbdock ($Id: //depot/dev/client3/rdock/2013.1/src/exe/rbdock.cxx#4 $)

>  <Rbt.Library>
libRbt.so (2013.1, Build901 2013/11/27)

>  <Rbt.Parameter_File>
/export/apps/rDock/src/rDock_2013.1_src/data/scripts/dock_solv.prm

>  <Rbt.Receptor>
prm/blind_docking_100.prm

>  <SCORE>
-8.46148

>  <SCORE.INTER>
-7.20392

>  <SCORE.INTER.CONST>
1

>  <SCORE.INTER.POLAR>
0

>  <SCORE.INTER.ROT>
7

>  <SCORE.INTER.SOLV>
16.6028

>  <SCORE.INTER.VDW>
-18.6035

>  <SCORE.INTER.norm>
-0.266812

>  <SCORE.INTRA>
-1.25755

>  <SCORE.INTRA.DIHEDRAL>
-6.7267

>  <SCORE.INTRA.DIHEDRAL.0>
13.9704

>  <SCORE.INTRA.POLAR>
0

>  <SCORE.INTRA.POLAR.0>
0

>  <SCORE.INTRA.REPUL>
0

>  <SCORE.INTRA.REPUL.0>
0

>  <SCORE.INTRA.SOLV>
3.87841

>  <SCORE.INTRA.SOLV.lig_0>
-70.9758

>  <SCORE.INTRA.VDW>
0.166593

>  <SCORE.INTRA.VDW.0>
-2.70686

>  <SCORE.INTRA.norm>
-0.046576

>  <SCORE.RESTR>
0

>  <SCORE.RESTR.CAVITY>
0

>  <SCORE.RESTR.norm>
0

>  <SCORE.SYSTEM>
0

>  <SCORE.SYSTEM.CONST>
0

>  <SCORE.SYSTEM.DIHEDRAL>
0

>  <SCORE.SYSTEM.SOLV>
0

>  <SCORE.SYSTEM.norm>
0

>  <SCORE.heavy>
27

>  <SCORE.norm>
-0.313388

>  <RMSD>
14.613

$$$$
ligand
 OpenBabel11021811473D
libRbt.so/2013.1/901 2013/11/27
 27 29  0  0  0  0  0  0  0  0999 V2000
   52.3397   54.8758   24.2870 N   0  0  0  0  0  0  0  0  0  0  0  0
   51.6043   53.8538   23.5456 C   0  0  2  0  0  0  0  0  0  0  0  0
   52.4347   52.6148   23.2038 C   0  0  0  0  0  0  0  0  0  0  0  0
   53.5612   52.7603   22.8625 O   0  0  0  0  0  0  0  0  0  0  0  0
   50.7969   54.3873   22.3436 C   0  0  0  0  0  0  0  0  0  0  0  0
   49.9833   53.3935   21.4687 C   0  0  0  0  0  0  0  0  0  0  0  0
   49.1388   54.0310   20.3334 C   0  0  2  0  0  0  0  0  0  0  0  0
   48.2458   53.0731   19.6814 N   0  0  0  0  0  0  0  0  0  0  0  0
   50.0178   54.8332   19.3250 C   0  0  0  0  0  0  0  0  0  0  0  0
   51.2197   54.1037   18.6353 C   0  0  1  0  0  0  0  0  0  0  0  0
   51.2934   54.0780   17.1789 O   0  0  0  0  0  0  0  0  0  0  0  0
   52.6469   54.5190   19.0899 C   0  0  1  0  0  0  0  0  0  0  0  0
   53.0371   54.2109   20.4345 O   0  0  0  0  0  0  0  0  0  0  0  0
   53.5854   54.1123   17.9117 C   0  0  1  0  0  0  0  0  0  0  0  0
   54.4679   53.0342   18.1111 O   0  0  0  0  0  0  0  0  0  0  0  0
   52.6288   54.0739   16.7158 C   0  0  2  0  0  0  0  0  0  0  0  0
   52.0412   51.3739   23.7433 O   0  0  0  0  0  0  0  0  0  0  0  0
   55.0208   55.6534   12.1037 N   0  0  0  0  0  0  0  0  0  0  0  0
   55.0547   54.3822   12.6884 C   0  0  0  0  0  0  0  0  0  0  0  0
   54.3475   54.1348   13.9429 N   0  0  0  0  0  0  0  0  0  0  0  0
   53.6487   55.1450   14.5482 C   0  0  0  0  0  0  0  0  0  0  0  0
   53.6213   56.4218   13.9541 C   0  0  0  0  0  0  0  0  0  0  0  0
   54.3270   56.6678   12.7043 C   0  0  0  0  0  0  0  0  0  0  0  0
   54.2988   57.9934   12.0850 N   0  0  0  0  0  0  0  0  0  0  0  0
   52.8249   57.2853   14.7915 N   0  0  0  0  0  0  0  0  0  0  0  0
   52.3755   56.5214   15.8943 C   0  0  0  0  0  0  0  0  0  0  0  0
   52.8735   55.1932   15.7607 N   0  0  0  0  0  0  0  0  0  0  0  0
  2  1  1  6  0  0  0
  2  3  1  0  0  0  0
  2  5  1  0  0  0  0
  3  4  1  0  0  0  0
  3 17  1  0  0  0  0
  5  6  1  0  0  0  0
  7  6  1  1  0  0  0
  7  8  1  0  0  0  0
  7  9  1  0  0  0  0
 10  9  1  6  0  0  0
 10 11  1  0  0  0  0
 10 12  1  0  0  0  0
 11 16  1  0  0  0  0
 12 13  1  1  0  0  0
 12 14  1  0  0  0  0
 14 15  1  1  0  0  0
 14 16  1  0  0  0  0
 16 27  1  6  0  0  0
 18 19  2  0  0  0  0
 18 23  1  0  0  0  0
 19 20  1  0  0  0  0
 20 21  2  0  0  0  0
 21 22  1  0  0  0  0
 21 27  1  0  0  0  0
 22 23  2  0  0  0  0
 22 25  1  0  0  0  0
 23 24  1  0  0  0  0
 25 26  2  0  0  0  0
 26 27  1  0  0  0  0
M  END
>  <CHROM.1>
-40.07772917,179.43808370,176.61839153,-171.29627841,54.95859954,124.30038272
-139.56922045,52.48361060,54.48390871,18.19028296,-1.84221018,0.21346069
-1.22940955

>  <Name>
ligand

>  <RI>
0

>  <Rbt.Current_Directory>
/home/itssahil/PROJECTS/Mol_Feturizer/New_Systems/rnas/3GX2

>  <Rbt.Executable>
rbdock ($Id: //depot/dev/client3/rdock/2013.1/src/exe/rbdock.cxx#4 $)

>  <Rbt.Library>
libRbt.so (2013.1, Build901 2013/11/27)

>  <Rbt.Parameter_File>
/export/apps/rDock/src/rDock_2013.1_src/data/scripts/dock_solv.prm

>  <Rbt.Receptor>
prm/blind_docking_100.prm

>  <SCORE>
-10.0523

>  <SCORE.INTER>
-8.95337

>  <SCORE.INTER.CONST>
1

>  <SCORE.INTER.POLAR>
0

>  <SCORE.INTER.ROT>
7

>  <SCORE.INTER.SOLV>
13.7355

>  <SCORE.INTER.VDW>
-18.8141

>  <SCORE.INTER.norm>
-0.331606

>  <SCORE.INTRA>
-1.11676

>  <SCORE.INTRA.DIHEDRAL>
-3.7347

>  <SCORE.INTRA.DIHEDRAL.0>
13.9704

>  <SCORE.INTRA.POLAR>
0

>  <SCORE.INTRA.POLAR.0>
0

>  <SCORE.INTRA.REPUL>
0

>  <SCORE.INTRA.REPUL.0>
0

>  <SCORE.INTRA.SOLV>
1.0053

>  <SCORE.INTRA.SOLV.lig_0>
-70.9758

>  <SCORE.INTRA.VDW>
0.247934

>  <SCORE.INTRA.VDW.0>
-2.70686

>  <SCORE.INTRA.norm>
-0.0413616

>  <SCORE.RESTR>
0.0178058

>  <SCORE.RESTR.CAVITY>
0.0178058

>  <SCORE.RESTR.norm>
0.000659474

>  <SCORE.SYSTEM>
0

>  <SCORE.SYSTEM.CONST>
0

>  <SCORE.SYSTEM.DIHEDRAL>
0

>  <SCORE.SYSTEM.SOLV>
0

>  <SCORE.SYSTEM.norm>
0

>  <SCORE.heavy>
27

>  <SCORE.norm>
-0.372309

>  <RMSD>
15.485

$$$$
ligand
 OpenBabel11021811473D
libRbt.so/2013.1/901 2013/11/27
 27 29  0  0  0  0  0  0  0  0999 V2000
   55.8254   56.8823   11.3186 N   0  0  0  0  0  0  0  0  0  0  0  0
   54.5096   57.2352   11.8470 C   0  0  2  0  0  0  0  0  0  0  0  0
   53.7332   58.2233   10.9741 C   0  0  0  0  0  0  0  0  0  0  0  0
   54.3266   58.8599   10.1682 O   0  0  0  0  0  0  0  0  0  0  0  0
   54.4980   57.6155   13.3425 C   0  0  0  0  0  0  0  0  0  0  0  0
   54.9070   56.5559   14.4031 C   0  0  0  0  0  0  0  0  0  0  0  0
   54.8286   57.0183   15.8825 C   0  0  2  0  0  0  0  0  0  0  0  0
   55.7626   58.1011   16.1908 N   0  0  0  0  0  0  0  0  0  0  0  0
   54.9264   55.8225   16.8793 C   0  0  0  0  0  0  0  0  0  0  0  0
   53.8179   54.7174   16.8328 C   0  0  1  0  0  0  0  0  0  0  0  0
   53.8623   53.6262   17.7995 O   0  0  0  0  0  0  0  0  0  0  0  0
   52.3416   55.2028   16.8615 C   0  0  1  0  0  0  0  0  0  0  0  0
   51.8592   55.9454   15.7342 O   0  0  0  0  0  0  0  0  0  0  0  0
   51.5198   53.9811   17.3775 C   0  0  1  0  0  0  0  0  0  0  0  0
   50.6738   53.3209   16.4668 O   0  0  0  0  0  0  0  0  0  0  0  0
   52.5698   53.1644   18.1373 C   0  0  2  0  0  0  0  0  0  0  0  0
   52.3503   58.0187   10.7967 O   0  0  0  0  0  0  0  0  0  0  0  0
   49.6559   55.2001   22.2424 N   0  0  0  0  0  0  0  0  0  0  0  0
   49.5037   55.4654   20.8767 C   0  0  0  0  0  0  0  0  0  0  0  0
   50.3851   54.8234   19.9041 N   0  0  0  0  0  0  0  0  0  0  0  0
   51.3604   53.9597   20.3260 C   0  0  0  0  0  0  0  0  0  0  0  0
   51.5080   53.6998   21.7025 C   0  0  0  0  0  0  0  0  0  0  0  0
   50.6297   54.3406   22.6713 C   0  0  0  0  0  0  0  0  0  0  0  0
   50.7809   54.0710   24.1016 N   0  0  0  0  0  0  0  0  0  0  0  0
   52.5973   52.7681   21.8651 N   0  0  0  0  0  0  0  0  0  0  0  0
   53.1060   52.4710   20.5789 C   0  0  0  0  0  0  0  0  0  0  0  0
   52.3521   53.1976   19.6126 N   0  0  0  0  0  0  0  0  0  0  0  0
  2  1  1  6  0  0  0
  2  3  1  0  0  0  0
  2  5  1  0  0  0  0
  3  4  1  0  0  0  0
  3 17  1  0  0  0  0
  5  6  1  0  0  0  0
  7  6  1  6  0  0  0
  7  8  1  0  0  0  0
  7  9  1  0  0  0  0
 10  9  1  1  0  0  0
 10 11  1  0  0  0  0
 10 12  1  0  0  0  0
 11 16  1  0  0  0  0
 12 13  1  6  0  0  0
 12 14  1  0  0  0  0
 14 15  1  6  0  0  0
 14 16  1  0  0  0  0
 16 27  1  1  0  0  0
 18 19  2  0  0  0  0
 18 23  1  0  0  0  0
 19 20  1  0  0  0  0
 20 21  2  0  0  0  0
 21 22  1  0  0  0  0
 21 27  1  0  0  0  0
 22 23  2  0  0  0  0
 22 25  1  0  0  0  0
 23 24  1  0  0  0  0
 25 26  2  0  0  0  0
 26 27  1  0  0  0  0
M  END
>  <CHROM.1>
-18.03992334,-62.98430085,-178.44241723,-64.15411134,-61.90557029,-177.19513469
118.66802288,52.77472729,55.39136385,17.06243979,-1.26943174,-0.10892333
1.98653423

>  <Name>
ligand

>  <RI>
0

>  <Rbt.Current_Directory>
/home/itssahil/PROJECTS/Mol_Feturizer/New_Systems/rnas/3GX2

>  <Rbt.Executable>
rbdock ($Id: //depot/dev/client3/rdock/2013.1/src/exe/rbdock.cxx#4 $)

>  <Rbt.Library>
libRbt.so (2013.1, Build901 2013/11/27)

>  <Rbt.Parameter_File>
/export/apps/rDock/src/rDock_2013.1_src/data/scripts/dock_solv.prm

>  <Rbt.Receptor>
prm/blind_docking_100.prm

>  <SCORE>
-12.1201

>  <SCORE.INTER>
-8.04757

>  <SCORE.INTER.CONST>
1

>  <SCORE.INTER.POLAR>
0

>  <SCORE.INTER.ROT>
7

>  <SCORE.INTER.SOLV>
11.6882

>  <SCORE.INTER.VDW>
-17.5278

>  <SCORE.INTER.norm>
-0.298058

>  <SCORE.INTRA>
-4.07249

>  <SCORE.INTRA.DIHEDRAL>
-9.25854

>  <SCORE.INTRA.DIHEDRAL.0>
13.9704

>  <SCORE.INTRA.POLAR>
0

>  <SCORE.INTRA.POLAR.0>
0

>  <SCORE.INTRA.REPUL>
0

>  <SCORE.INTRA.REPUL.0>
0

>  <SCORE.INTRA.SOLV>
0.299158

>  <SCORE.INTRA.SOLV.lig_0>
-70.9758

>  <SCORE.INTRA.VDW>
0.4072

>  <SCORE.INTRA.VDW.0>
-2.70686

>  <SCORE.INTRA.norm>
-0.150833

>  <SCORE.RESTR>
0

>  <SCORE.RESTR.CAVITY>
0

>  <SCORE.RESTR.norm>
0

>  <SCORE.SYSTEM>
0

>  <SCORE.SYSTEM.CONST>
0

>  <SCORE.SYSTEM.DIHEDRAL>
0

>  <SCORE.SYSTEM.SOLV>
0

>  <SCORE.SYSTEM.norm>
0

>  <SCORE.heavy>
27

>  <SCORE.norm>
-0.448891

>  <RMSD>
15.579

$$$$
ligand
 OpenBabel11021811473D
libRbt.so/2013.1/901 2013/11/27
 27 29  0  0  0  0  0  0  0  0999 V2000
   51.1192   51.9406   23.7724 N   0  0  0  0  0  0  0  0  0  0  0  0
   51.6988   51.5571   25.0577 C   0  0  2  0  0  0  0  0  0  0  0  0
   51.3326   52.4948   26.2100 C   0  0  0  0  0  0  0  0  0  0  0  0
   51.3251   53.6643   26.0124 O   0  0  0  0  0  0  0  0  0  0  0  0
   53.2043   51.2220   25.0098 C   0  0  0  0  0  0  0  0  0  0  0  0
   53.6723   49.9044   24.3317 C   0  0  0  0  0  0  0  0  0  0  0  0
   55.2070   49.6787   24.2853 C   0  0  2  0  0  0  0  0  0  0  0  0
   55.8873   50.5807   23.3560 N   0  0  0  0  0  0  0  0  0  0  0  0
   55.5753   48.1792   24.0638 C   0  0  0  0  0  0  0  0  0  0  0  0
   55.5191   47.6023   22.6090 C   0  0  1  0  0  0  0  0  0  0  0  0
   55.8932   46.2110   22.3821 O   0  0  0  0  0  0  0  0  0  0  0  0
   54.1817   47.7766   21.8363 C   0  0  1  0  0  0  0  0  0  0  0  0
   53.7805   49.1072   21.4847 O   0  0  0  0  0  0  0  0  0  0  0  0
   54.1979   46.6698   20.7368 C   0  0  1  0  0  0  0  0  0  0  0  0
   54.3500   47.0713   19.3964 O   0  0  0  0  0  0  0  0  0  0  0  0
   55.1690   45.6349   21.3137 C   0  0  2  0  0  0  0  0  0  0  0  0
   50.5716   51.9796   27.2782 O   0  0  0  0  0  0  0  0  0  0  0  0
   51.3360   41.9621   20.1711 N   0  0  0  0  0  0  0  0  0  0  0  0
   51.6891   43.0869   19.4169 C   0  0  0  0  0  0  0  0  0  0  0  0
   52.7536   43.9739   19.8806 N   0  0  0  0  0  0  0  0  0  0  0  0
   53.4091   43.7061   21.0527 C   0  0  0  0  0  0  0  0  0  0  0  0
   53.0462   42.5730   21.8067 C   0  0  0  0  0  0  0  0  0  0  0  0
   51.9847   41.6898   21.3442 C   0  0  0  0  0  0  0  0  0  0  0  0
   51.6069   40.5117   22.1256 N   0  0  0  0  0  0  0  0  0  0  0  0
   53.8847   42.5318   22.9798 N   0  0  0  0  0  0  0  0  0  0  0  0
   54.7524   43.6481   22.9288 C   0  0  0  0  0  0  0  0  0  0  0  0
   54.4747   44.3862   21.7422 N   0  0  0  0  0  0  0  0  0  0  0  0
  2  1  1  6  0  0  0
  2  3  1  0  0  0  0
  2  5  1  0  0  0  0
  3  4  1  0  0  0  0
  3 17  1  0  0  0  0
  5  6  1  0  0  0  0
  7  6  1  6  0  0  0
  7  8  1  0  0  0  0
  7  9  1  0  0  0  0
 10  9  1  1  0  0  0
 10 11  1  0  0  0  0
 10 12  1  0  0  0  0
 11 16  1  0  0  0  0
 12 13  1  6  0  0  0
 12 14  1  0  0  0  0
 14 15  1  6  0  0  0
 14 16  1  0  0  0  0
 16 27  1  1  0  0  0
 18 19  2  0  0  0  0
 18 23  1  0  0  0  0
 19 20  1  0  0  0  0
 20 21  2  0  0  0  0
 21 22  1  0  0  0  0
 21 27  1  0  0  0  0
 22 23  2  0  0  0  0
 22 25  1  0  0  0  0
 23 24  1  0  0  0  0
 25 26  2  0  0  0  0
 26 27  1  0  0  0  0
M  END
>  <CHROM.1>
-41.16916343,-71.85193362,177.81811220,-70.68223525,80.48198335,178.47372969
164.02755755,53.38968094,47.15944940,22.73376967,1.64606718,0.41143805,0.40548922

>  <Name>
ligand

>  <RI>
0

>  <Rbt.Current_Directory>
/home/itssahil/PROJECTS/Mol_Feturizer/New_Systems/rnas/3GX2

>  <Rbt.Executable>
rbdock ($Id: //depot/dev/client3/rdock/2013.1/src/exe/rbdock.cxx#4 $)

>  <Rbt.Library>
libRbt.so (2013.1, Build901 2013/11/27)

>  <Rbt.Parameter_File>
/export/apps/rDock/src/rDock_2013.1_src/data/scripts/dock_solv.prm

>  <Rbt.Receptor>
prm/blind_docking_100.prm

>  <SCORE>
-20.1581

>  <SCORE.INTER>
-17.8997

>  <SCORE.INTER.CONST>
1

>  <SCORE.INTER.POLAR>
0

>  <SCORE.INTER.ROT>
7

>  <SCORE.INTER.SOLV>
17.1604

>  <SCORE.INTER.VDW>
-25.92

>  <SCORE.INTER.norm>
-0.662953

>  <SCORE.INTRA>
-2.25836

>  <SCORE.INTRA.DIHEDRAL>
-7.11703

>  <SCORE.INTRA.DIHEDRAL.0>
13.9704

>  <SCORE.INTRA.POLAR>
0

>  <SCORE.INTRA.POLAR.0>
0

>  <SCORE.INTRA.REPUL>
0

>  <SCORE.INTRA.REPUL.0>
0

>  <SCORE.INTRA.SOLV>
2.3102

>  <SCORE.INTRA.SOLV.lig_0>
-70.9758

>  <SCORE.INTRA.VDW>
0.145051

>  <SCORE.INTRA.VDW.0>
-2.70686

>  <SCORE.INTRA.norm>
-0.083643

>  <SCORE.RESTR>
0

>  <SCORE.RESTR.CAVITY>
0

>  <SCORE.RESTR.norm>
0

>  <SCORE.SYSTEM>
0

>  <SCORE.SYSTEM.CONST>
0

>  <SCORE.SYSTEM.DIHEDRAL>
0

>  <SCORE.SYSTEM.SOLV>
0

>  <SCORE.SYSTEM.norm>
0

>  <SCORE.heavy>
27

>  <SCORE.norm>
-0.746596

>  <RMSD>
15.742

$$$$
ligand
 OpenBabel11021811473D
libRbt.so/2013.1/901 2013/11/27
 27 29  0  0  0  0  0  0  0  0999 V2000
   50.1107   52.7991   24.0086 N   0  0  0  0  0  0  0  0  0  0  0  0
   51.0956   53.7900   23.5807 C   0  0  2  0  0  0  0  0  0  0  0  0
   51.6217   54.6737   24.7136 C   0  0  0  0  0  0  0  0  0  0  0  0
   52.7122   55.1309   24.6201 O   0  0  0  0  0  0  0  0  0  0  0  0
   50.6950   54.5947   22.3265 C   0  0  0  0  0  0  0  0  0  0  0  0
   50.6293   53.8789   20.9486 C   0  0  0  0  0  0  0  0  0  0  0  0
   50.2209   54.7699   19.7454 C   0  0  2  0  0  0  0  0  0  0  0  0
   48.8044   55.1350   19.7621 N   0  0  0  0  0  0  0  0  0  0  0  0
   50.6819   54.1666   18.3827 C   0  0  0  0  0  0  0  0  0  0  0  0
   52.2168   54.0058   18.1170 C   0  0  1  0  0  0  0  0  0  0  0  0
   52.6954   53.9348   16.7411 O   0  0  0  0  0  0  0  0  0  0  0  0
   53.1593   55.0330   18.8043 C   0  0  1  0  0  0  0  0  0  0  0  0
   53.2516   55.0038   20.2346 O   0  0  0  0  0  0  0  0  0  0  0  0
   54.4683   55.0180   17.9556 C   0  0  1  0  0  0  0  0  0  0  0  0
   55.6224   54.4532   18.5298 O   0  0  0  0  0  0  0  0  0  0  0  0
   53.9852   54.4951   16.5991 C   0  0  2  0  0  0  0  0  0  0  0  0
   50.6888   55.3048   25.5605 O   0  0  0  0  0  0  0  0  0  0  0  0
   54.8568   55.6704   11.3697 N   0  0  0  0  0  0  0  0  0  0  0  0
   54.9651   54.4210   11.9910 C   0  0  0  0  0  0  0  0  0  0  0  0
   54.6915   54.2885   13.4202 N   0  0  0  0  0  0  0  0  0  0  0  0
   54.3270   55.3854   14.1544 C   0  0  0  0  0  0  0  0  0  0  0  0
   54.2222   56.6395   13.5217 C   0  0  0  0  0  0  0  0  0  0  0  0
   54.4957   56.7710   12.0975 C   0  0  0  0  0  0  0  0  0  0  0  0
   54.3864   58.0728   11.4382 N   0  0  0  0  0  0  0  0  0  0  0  0
   53.8290   57.6080   14.5159 N   0  0  0  0  0  0  0  0  0  0  0  0
   53.7004   56.9301   15.7509 C   0  0  0  0  0  0  0  0  0  0  0  0
   54.0027   55.5527   15.5474 N   0  0  0  0  0  0  0  0  0  0  0  0
  2  1  1  1  0  0  0
  2  3  1  0  0  0  0
  2  5  1  0  0  0  0
  3  4  1  0  0  0  0
  3 17  1  0  0  0  0
  5  6  1  0  0  0  0
  7  6  1  1  0  0  0
  7  8  1  0  0  0  0
  7  9  1  0  0  0  0
 10  9  1  6  0  0  0
 10 11  1  0  0  0  0
 10 12  1  0  0  0  0
 11 16  1  0  0  0  0
 12 13  1  1  0  0  0
 12 14  1  0  0  0  0
 14 15  1  1  0  0  0
 14 16  1  0  0  0  0
 16 27  1  6  0  0  0
 18 19  2  0  0  0  0
 18 23  1  0  0  0  0
 19 20  1  0  0  0  0
 20 21  2  0  0  0  0
 21 22  1  0  0  0  0
 21 27  1  0  0  0  0
 22 23  2  0  0  0  0
 22 25  1  0  0  0  0
 23 24  1  0  0  0  0
 25 26  2  0  0  0  0
 26 27  1  0  0  0  0
M  END
>  <CHROM.1>
152.19809845,-68.82179155,-179.85033578,-72.23841397,-63.29393971,-157.18368051
-92.94892749,52.79117518,55.06977430,18.11055486,1.89052798,0.11680384,1.68615987

>  <Name>
ligand

>  <RI>
0

>  <Rbt.Current_Directory>
/home/itssahil/PROJECTS/Mol_Feturizer/New_Systems/rnas/3GX2

>  <Rbt.Executable>
rbdock ($Id: //depot/dev/client3/rdock/2013.1/src/exe/rbdock.cxx#4 $)

>  <Rbt.Library>
libRbt.so (2013.1, Build901 2013/11/27)

>  <Rbt.Parameter_File>
/export/apps/rDock/src/rDock_2013.1_src/data/scripts/dock_solv.prm

>  <Rbt.Receptor>
prm/blind_docking_100.prm

>  <SCORE>
-10.79

>  <SCORE.INTER>
-8.34297

>  <SCORE.INTER.CONST>
1

>  <SCORE.INTER.POLAR>
0

>  <SCORE.INTER.ROT>
7

>  <SCORE.INTER.SOLV>
12.2469

>  <SCORE.INTER.VDW>
-17.9109

>  <SCORE.INTER.norm>
-0.308999

>  <SCORE.INTRA>
-2.44704

>  <SCORE.INTRA.DIHEDRAL>
-6.33653

>  <SCORE.INTRA.DIHEDRAL.0>
13.9704

>  <SCORE.INTRA.POLAR>
0

>  <SCORE.INTRA.POLAR.0>
0

>  <SCORE.INTRA.REPUL>
0

>  <SCORE.INTRA.REPUL.0>
0

>  <SCORE.INTRA.SOLV>
0.417487

>  <SCORE.INTRA.SOLV.lig_0>
-70.9758

>  <SCORE.INTRA.VDW>
0.512478

>  <SCORE.INTRA.VDW.0>
-2.70686

>  <SCORE.INTRA.norm>
-0.0906313

>  <SCORE.RESTR>
0

>  <SCORE.RESTR.CAVITY>
0

>  <SCORE.RESTR.norm>
0

>  <SCORE.SYSTEM>
0

>  <SCORE.SYSTEM.CONST>
0

>  <SCORE.SYSTEM.DIHEDRAL>
0

>  <SCORE.SYSTEM.SOLV>
0

>  <SCORE.SYSTEM.norm>
0

>  <SCORE.heavy>
27

>  <SCORE.norm>
-0.39963

>  <RMSD>
15.758

$$$$
ligand
 OpenBabel11021811473D
libRbt.so/2013.1/901 2013/11/27
 27 29  0  0  0  0  0  0  0  0999 V2000
   52.2678   51.2996   26.5104 N   0  0  0  0  0  0  0  0  0  0  0  0
   52.0136   51.7616   25.1477 C   0  0  2  0  0  0  0  0  0  0  0  0
   50.5363   52.0186   24.8433 C   0  0  0  0  0  0  0  0  0  0  0  0
   50.2562   52.6974   23.9118 O   0  0  0  0  0  0  0  0  0  0  0  0
   52.7206   50.9415   24.0483 C   0  0  0  0  0  0  0  0  0  0  0  0
   54.2731   50.8744   24.0248 C   0  0  0  0  0  0  0  0  0  0  0  0
   54.8948   50.0629   22.8572 C   0  0  2  0  0  0  0  0  0  0  0  0
   54.6196   50.6500   21.5459 N   0  0  0  0  0  0  0  0  0  0  0  0
   54.5360   48.5469   22.9371 C   0  0  0  0  0  0  0  0  0  0  0  0
   55.1516   47.5756   21.8741 C   0  0  1  0  0  0  0  0  0  0  0  0
   55.0749   46.1366   22.0988 O   0  0  0  0  0  0  0  0  0  0  0  0
   54.6916   47.7645   20.4014 C   0  0  1  0  0  0  0  0  0  0  0  0
   55.0681   48.9754   19.7328 O   0  0  0  0  0  0  0  0  0  0  0  0
   54.9666   46.3940   19.7085 C   0  0  1  0  0  0  0  0  0  0  0  0
   56.0066   46.3283   18.7625 O   0  0  0  0  0  0  0  0  0  0  0  0
   54.9758   45.4155   20.8871 C   0  0  2  0  0  0  0  0  0  0  0  0
   49.5819   51.1037   25.3309 O   0  0  0  0  0  0  0  0  0  0  0  0
   51.8838   41.9871   23.7459 N   0  0  0  0  0  0  0  0  0  0  0  0
   53.0218   42.6743   24.1837 C   0  0  0  0  0  0  0  0  0  0  0  0
   53.7362   43.5632   23.2701 N   0  0  0  0  0  0  0  0  0  0  0  0
   53.2933   43.7273   21.9848 C   0  0  0  0  0  0  0  0  0  0  0  0
   52.1483   43.0305   21.5518 C   0  0  0  0  0  0  0  0  0  0  0  0
   51.4373   42.1442   22.4625 C   0  0  0  0  0  0  0  0  0  0  0  0
   50.2470   41.4202   22.0147 N   0  0  0  0  0  0  0  0  0  0  0  0
   51.9085   43.3817   20.1733 N   0  0  0  0  0  0  0  0  0  0  0  0
   52.9173   44.2917   19.7786 C   0  0  0  0  0  0  0  0  0  0  0  0
   53.7831   44.5198   20.8868 N   0  0  0  0  0  0  0  0  0  0  0  0
  2  1  1  1  0  0  0
  2  3  1  0  0  0  0
  2  5  1  0  0  0  0
  3  4  1  0  0  0  0
  3 17  1  0  0  0  0
  5  6  1  0  0  0  0
  7  6  1  1  0  0  0
  7  8  1  0  0  0  0
  7  9  1  0  0  0  0
 10  9  1  1  0  0  0
 10 11  1  0  0  0  0
 10 12  1  0  0  0  0
 11 16  1  0  0  0  0
 12 13  1  6  0  0  0
 12 14  1  0  0  0  0
 14 15  1  1  0  0  0
 14 16  1  0  0  0  0
 16 27  1  1  0  0  0
 18 19  2  0  0  0  0
 18 23  1  0  0  0  0
 19 20  1  0  0  0  0
 20 21  2  0  0  0  0
 21 22  1  0  0  0  0
 21 27  1  0  0  0  0
 22 23  2  0  0  0  0
 22 25  1  0  0  0  0
 23 24  1  0  0  0  0
 25 26  2  0  0  0  0
 26 27  1  0  0  0  0
M  END
>  <CHROM.1>
161.32301687,-61.47057348,-178.16733686,64.23774765,-176.71365564,166.53690455
-40.29398511,53.18964081,47.13723357,22.39770492,1.69512355,0.74717609,0.24250224

>  <Name>
ligand

>  <RI>
0

>  <Rbt.Current_Directory>
/home/itssahil/PROJECTS/Mol_Feturizer/New_Systems/rnas/3GX2

>  <Rbt.Executable>
rbdock ($Id: //depot/dev/client3/rdock/2013.1/src/exe/rbdock.cxx#4 $)

>  <Rbt.Library>
libRbt.so (2013.1, Build901 2013/11/27)

>  <Rbt.Parameter_File>
/export/apps/rDock/src/rDock_2013.1_src/data/scripts/dock_solv.prm

>  <Rbt.Receptor>
prm/blind_docking_80.prm

>  <SCORE>
-15.7526

>  <SCORE.INTER>
-14.2831

>  <SCORE.INTER.CONST>
1

>  <SCORE.INTER.POLAR>
0

>  <SCORE.INTER.ROT>
7

>  <SCORE.INTER.SOLV>
19.8155

>  <SCORE.INTER.VDW>
-24.3939

>  <SCORE.INTER.norm>
-0.529003

>  <SCORE.INTRA>
-1.46946

>  <SCORE.INTRA.DIHEDRAL>
-8.45669

>  <SCORE.INTRA.DIHEDRAL.0>
13.9704

>  <SCORE.INTRA.POLAR>
0

>  <SCORE.INTRA.POLAR.0>
0

>  <SCORE.INTRA.REPUL>
0

>  <SCORE.INTRA.REPUL.0>
0

>  <SCORE.INTRA.SOLV>
2.8644

>  <SCORE.INTRA.SOLV.lig_0>
-70.9758

>  <SCORE.INTRA.VDW>
1.32669

>  <SCORE.INTRA.VDW.0>
-2.70686

>  <SCORE.INTRA.norm>
-0.0544245

>  <SCORE.RESTR>
0

>  <SCORE.RESTR.CAVITY>
0

>  <SCORE.RESTR.norm>
0

>  <SCORE.SYSTEM>
0

>  <SCORE.SYSTEM.CONST>
0

>  <SCORE.SYSTEM.DIHEDRAL>
0

>  <SCORE.SYSTEM.SOLV>
0

>  <SCORE.SYSTEM.norm>
0

>  <SCORE.heavy>
27

>  <SCORE.norm>
-0.583428

>  <RMSD>
15.768

$$$$
ligand
 OpenBabel11021811473D
libRbt.so/2013.1/901 2013/11/27
 27 29  0  0  0  0  0  0  0  0999 V2000
   52.0674   60.8886   12.8245 N   0  0  0  0  0  0  0  0  0  0  0  0
   53.3282   60.2545   12.4456 C   0  0  2  0  0  0  0  0  0  0  0  0
   53.9237   60.7854   11.1399 C   0  0  0  0  0  0  0  0  0  0  0  0
   53.8289   60.1238   10.1600 O   0  0  0  0  0  0  0  0  0  0  0  0
   53.3210   58.7133   12.5208 C   0  0  0  0  0  0  0  0  0  0  0  0
   53.0855   58.0166   13.8898 C   0  0  0  0  0  0  0  0  0  0  0  0
   54.1998   58.2213   14.9504 C   0  0  2  0  0  0  0  0  0  0  0  0
   55.4329   57.5041   14.6264 N   0  0  0  0  0  0  0  0  0  0  0  0
   53.6922   57.9434   16.3990 C   0  0  0  0  0  0  0  0  0  0  0  0
   53.4987   56.4567   16.8514 C   0  0  1  0  0  0  0  0  0  0  0  0
   52.8899   56.1828   18.1481 O   0  0  0  0  0  0  0  0  0  0  0  0
   52.7539   55.5144   15.8650 C   0  0  1  0  0  0  0  0  0  0  0  0
   53.3938   55.2090   14.6190 O   0  0  0  0  0  0  0  0  0  0  0  0
   52.2076   54.3491   16.7469 C   0  0  1  0  0  0  0  0  0  0  0  0
   52.7955   53.0785   16.6021 O   0  0  0  0  0  0  0  0  0  0  0  0
   52.1459   54.9810   18.1411 C   0  0  2  0  0  0  0  0  0  0  0  0
   54.1186   62.1747   11.0075 O   0  0  0  0  0  0  0  0  0  0  0  0
   48.2867   53.7126   21.7445 N   0  0  0  0  0  0  0  0  0  0  0  0
   49.5915   53.2101   21.6821 C   0  0  0  0  0  0  0  0  0  0  0  0
   50.5021   53.6673   20.6348 N   0  0  0  0  0  0  0  0  0  0  0  0
   50.0820   54.5893   19.7136 C   0  0  0  0  0  0  0  0  0  0  0  0
   48.7667   55.0885   19.7825 C   0  0  0  0  0  0  0  0  0  0  0  0
   47.8594   54.6318   20.8260 C   0  0  0  0  0  0  0  0  0  0  0  0
   46.4929   55.1500   20.8998 N   0  0  0  0  0  0  0  0  0  0  0  0
   48.5914   56.0311   18.7047 N   0  0  0  0  0  0  0  0  0  0  0  0
   49.8079   56.0943   17.9852 C   0  0  0  0  0  0  0  0  0  0  0  0
   50.7438   55.2102   18.5956 N   0  0  0  0  0  0  0  0  0  0  0  0
  2  1  1  6  0  0  0
  2  3  1  0  0  0  0
  2  5  1  0  0  0  0
  3  4  1  0  0  0  0
  3 17  1  0  0  0  0
  5  6  1  0  0  0  0
  7  6  1  6  0  0  0
  7  8  1  0  0  0  0
  7  9  1  0  0  0  0
 10  9  1  6  0  0  0
 10 11  1  0  0  0  0
 10 12  1  0  0  0  0
 11 16  1  0  0  0  0
 12 13  1  6  0  0  0
 12 14  1  0  0  0  0
 14 15  1  1  0  0  0
 14 16  1  0  0  0  0
 16 27  1  6  0  0  0
 18 19  2  0  0  0  0
 18 23  1  0  0  0  0
 19 20  1  0  0  0  0
 20 21  2  0  0  0  0
 21 22  1  0  0  0  0
 21 27  1  0  0  0  0
 22 23  2  0  0  0  0
 22 25  1  0  0  0  0
 23 24  1  0  0  0  0
 25 26  2  0  0  0  0
 26 27  1  0  0  0  0
M  END
>  <CHROM.1>
-103.86735593,-62.17754951,-66.32198929,-70.86092624,76.00361343,-173.44688410
-121.28426937,51.84250808,56.64358965,16.44200640,1.06728717,0.50772369,-0.70811032

>  <Name>
ligand

>  <RI>
0

>  <Rbt.Current_Directory>
/home/itssahil/PROJECTS/Mol_Feturizer/New_Systems/rnas/3GX2

>  <Rbt.Executable>
rbdock ($Id: //depot/dev/client3/rdock/2013.1/src/exe/rbdock.cxx#4 $)

>  <Rbt.Library>
libRbt.so (2013.1, Build901 2013/11/27)

>  <Rbt.Parameter_File>
/export/apps/rDock/src/rDock_2013.1_src/data/scripts/dock_solv.prm

>  <Rbt.Receptor>
prm/blind_docking_100.prm

>  <SCORE>
-8.73539

>  <SCORE.INTER>
-7.53436

>  <SCORE.INTER.CONST>
1

>  <SCORE.INTER.POLAR>
0

>  <SCORE.INTER.ROT>
7

>  <SCORE.INTER.SOLV>
15.8484

>  <SCORE.INTER.VDW>
-18.5724

>  <SCORE.INTER.norm>
-0.27905

>  <SCORE.INTRA>
-1.20103

>  <SCORE.INTRA.DIHEDRAL>
-7.25708

>  <SCORE.INTRA.DIHEDRAL.0>
13.9704

>  <SCORE.INTRA.POLAR>
0

>  <SCORE.INTRA.POLAR.0>
0

>  <SCORE.INTRA.REPUL>
0

>  <SCORE.INTRA.REPUL.0>
0

>  <SCORE.INTRA.SOLV>
3.28046

>  <SCORE.INTRA.SOLV.lig_0>
-70.9758

>  <SCORE.INTRA.VDW>
0.787276

>  <SCORE.INTRA.VDW.0>
-2.70686

>  <SCORE.INTRA.norm>
-0.0444827

>  <SCORE.RESTR>
0

>  <SCORE.RESTR.CAVITY>
0

>  <SCORE.RESTR.norm>
0

>  <SCORE.SYSTEM>
0

>  <SCORE.SYSTEM.CONST>
0

>  <SCORE.SYSTEM.DIHEDRAL>
0

>  <SCORE.SYSTEM.SOLV>
0

>  <SCORE.SYSTEM.norm>
0

>  <SCORE.heavy>
27

>  <SCORE.norm>
-0.323533

>  <RMSD>
15.872

$$$$
ligand
 OpenBabel11021811473D
libRbt.so/2013.1/901 2013/11/27
 27 29  0  0  0  0  0  0  0  0999 V2000
   51.1829   52.0172   23.9683 N   0  0  0  0  0  0  0  0  0  0  0  0
   52.6172   51.8500   23.7451 C   0  0  2  0  0  0  0  0  0  0  0  0
   53.4315   53.1297   23.9462 C   0  0  0  0  0  0  0  0  0  0  0  0
   54.5451   53.0397   24.3446 O   0  0  0  0  0  0  0  0  0  0  0  0
   52.9829   51.1021   22.4458 C   0  0  0  0  0  0  0  0  0  0  0  0
   54.4744   50.7950   22.1354 C   0  0  0  0  0  0  0  0  0  0  0  0
   55.2085   49.9031   23.1718 C   0  0  2  0  0  0  0  0  0  0  0  0
   56.6640   50.0336   23.1057 N   0  0  0  0  0  0  0  0  0  0  0  0
   54.7235   48.4214   23.1221 C   0  0  0  0  0  0  0  0  0  0  0  0
   55.2514   47.4999   21.9712 C   0  0  1  0  0  0  0  0  0  0  0  0
   55.1616   46.0521   22.1233 O   0  0  0  0  0  0  0  0  0  0  0  0
   54.7023   47.7759   20.5436 C   0  0  1  0  0  0  0  0  0  0  0  0
   55.0586   49.0153   19.9175 O   0  0  0  0  0  0  0  0  0  0  0  0
   54.9063   46.4410   19.7622 C   0  0  1  0  0  0  0  0  0  0  0  0
   55.8825   46.4104   18.7488 O   0  0  0  0  0  0  0  0  0  0  0  0
   54.9717   45.3997   20.8839 C   0  0  2  0  0  0  0  0  0  0  0  0
   53.0554   54.2836   23.2301 O   0  0  0  0  0  0  0  0  0  0  0  0
   51.8761   42.0470   23.8273 N   0  0  0  0  0  0  0  0  0  0  0  0
   53.0333   42.7185   24.2385 C   0  0  0  0  0  0  0  0  0  0  0  0
   53.7454   43.5878   23.3046 N   0  0  0  0  0  0  0  0  0  0  0  0
   53.2818   43.7490   22.0263 C   0  0  0  0  0  0  0  0  0  0  0  0
   52.1175   43.0681   21.6201 C   0  0  0  0  0  0  0  0  0  0  0  0
   51.4088   42.2013   22.5510 C   0  0  0  0  0  0  0  0  0  0  0  0
   50.1986   41.4938   22.1312 N   0  0  0  0  0  0  0  0  0  0  0  0
   51.8583   43.4121   20.2433 N   0  0  0  0  0  0  0  0  0  0  0  0
   52.8747   44.3018   19.8226 C   0  0  0  0  0  0  0  0  0  0  0  0
   53.7645   44.5242   20.9129 N   0  0  0  0  0  0  0  0  0  0  0  0
  2  1  1  6  0  0  0
  2  3  1  0  0  0  0
  2  5  1  0  0  0  0
  3  4  1  0  0  0  0
  3 17  1  0  0  0  0
  5  6  1  0  0  0  0
  7  6  1  6  0  0  0
  7  8  1  0  0  0  0
  7  9  1  0  0  0  0
 10  9  1  1  0  0  0
 10 11  1  0  0  0  0
 10 12  1  0  0  0  0
 11 16  1  0  0  0  0
 12 13  1  6  0  0  0
 12 14  1  0  0  0  0
 14 15  1  1  0  0  0
 14 16  1  0  0  0  0
 16 27  1  1  0  0  0
 18 19  2  0  0  0  0
 18 23  1  0  0  0  0
 19 20  1  0  0  0  0
 20 21  2  0  0  0  0
 21 22  1  0  0  0  0
 21 27  1  0  0  0  0
 22 23  2  0  0  0  0
 22 25  1  0  0  0  0
 23 24  1  0  0  0  0
 25 26  2  0  0  0  0
 26 27  1  0  0  0  0
M  END
>  <CHROM.1>
148.55304385,-176.73257823,60.61367946,-159.51197136,77.68911217,161.13623662
-35.86617651,53.71052435,47.34082526,22.13484090,1.38407263,0.75339931,0.27886212

>  <Name>
ligand

>  <RI>
0

>  <Rbt.Current_Directory>
/home/itssahil/PROJECTS/Mol_Feturizer/New_Systems/rnas/3GX2

>  <Rbt.Executable>
rbdock ($Id: //depot/dev/client3/rdock/2013.1/src/exe/rbdock.cxx#4 $)

>  <Rbt.Library>
libRbt.so (2013.1, Build901 2013/11/27)

>  <Rbt.Parameter_File>
/export/apps/rDock/src/rDock_2013.1_src/data/scripts/dock_solv.prm

>  <Rbt.Receptor>
prm/blind_docking_100.prm

>  <SCORE>
-15.3137

>  <SCORE.INTER>
-13.903

>  <SCORE.INTER.CONST>
1

>  <SCORE.INTER.POLAR>
0

>  <SCORE.INTER.ROT>
7

>  <SCORE.INTER.SOLV>
17.5132

>  <SCORE.INTER.VDW>
-23.3731

>  <SCORE.INTER.norm>
-0.514925

>  <SCORE.INTRA>
-1.41071

>  <SCORE.INTRA.DIHEDRAL>
-5.38681

>  <SCORE.INTRA.DIHEDRAL.0>
13.9704

>  <SCORE.INTRA.POLAR>
0

>  <SCORE.INTRA.POLAR.0>
0

>  <SCORE.INTRA.REPUL>
0

>  <SCORE.INTRA.REPUL.0>
0

>  <SCORE.INTRA.SOLV>
1.67821

>  <SCORE.INTRA.SOLV.lig_0>
-70.9758

>  <SCORE.INTRA.VDW>
0.443585

>  <SCORE.INTRA.VDW.0>
-2.70686

>  <SCORE.INTRA.norm>
-0.0522485

>  <SCORE.RESTR>
0

>  <SCORE.RESTR.CAVITY>
0

>  <SCORE.RESTR.norm>
0

>  <SCORE.SYSTEM>
0

>  <SCORE.SYSTEM.CONST>
0

>  <SCORE.SYSTEM.DIHEDRAL>
0

>  <SCORE.SYSTEM.SOLV>
0

>  <SCORE.SYSTEM.norm>
0

>  <SCORE.heavy>
27

>  <SCORE.norm>
-0.567174

>  <RMSD>
15.891

$$$$
ligand
 OpenBabel11021811473D
libRbt.so/2013.1/901 2013/11/27
 27 29  0  0  0  0  0  0  0  0999 V2000
   50.9461   52.0496   24.6511 N   0  0  0  0  0  0  0  0  0  0  0  0
   52.2803   52.5218   24.2877 C   0  0  2  0  0  0  0  0  0  0  0  0
   52.2881   53.8738   23.5714 C   0  0  0  0  0  0  0  0  0  0  0  0
   51.2804   54.4973   23.5201 O   0  0  0  0  0  0  0  0  0  0  0  0
   53.1684   51.4680   23.5936 C   0  0  0  0  0  0  0  0  0  0  0  0
   53.3573   50.0739   24.2539 C   0  0  0  0  0  0  0  0  0  0  0  0
   54.3911   49.1394   23.5709 C   0  0  2  0  0  0  0  0  0  0  0  0
   55.7653   49.6265   23.6909 N   0  0  0  0  0  0  0  0  0  0  0  0
   53.9907   48.7904   22.1042 C   0  0  0  0  0  0  0  0  0  0  0  0
   54.7764   47.6557   21.3644 C   0  0  1  0  0  0  0  0  0  0  0  0
   54.7532   46.3036   21.9108 O   0  0  0  0  0  0  0  0  0  0  0  0
   54.4791   47.4686   19.8503 C   0  0  1  0  0  0  0  0  0  0  0  0
   54.8633   48.5225   18.9576 O   0  0  0  0  0  0  0  0  0  0  0  0
   54.9063   46.0032   19.5280 C   0  0  1  0  0  0  0  0  0  0  0  0
   56.0501   45.8077   18.7315 O   0  0  0  0  0  0  0  0  0  0  0  0
   54.8334   45.3211   20.8978 C   0  0  2  0  0  0  0  0  0  0  0  0
   53.5159   54.5507   23.4297 O   0  0  0  0  0  0  0  0  0  0  0  0
   52.1687   41.7397   23.9897 N   0  0  0  0  0  0  0  0  0  0  0  0
   53.2928   42.4965   24.3398 C   0  0  0  0  0  0  0  0  0  0  0  0
   53.8841   43.4185   23.3728 N   0  0  0  0  0  0  0  0  0  0  0  0
   53.3393   43.5456   22.1229 C   0  0  0  0  0  0  0  0  0  0  0  0
   52.2091   42.7789   21.7781 C   0  0  0  0  0  0  0  0  0  0  0  0
   51.6208   41.8597   22.7421 C   0  0  0  0  0  0  0  0  0  0  0  0
   50.4461   41.0630   22.3860 N   0  0  0  0  0  0  0  0  0  0  0  0
   51.8485   43.1039   20.4197 N   0  0  0  0  0  0  0  0  0  0  0  0
   52.7696   44.0687   19.9482 C   0  0  0  0  0  0  0  0  0  0  0  0
   53.6993   44.3566   20.9888 N   0  0  0  0  0  0  0  0  0  0  0  0
  2  1  1  6  0  0  0
  2  3  1  0  0  0  0
  2  5  1  0  0  0  0
  3  4  1  0  0  0  0
  3 17  1  0  0  0  0
  5  6  1  0  0  0  0
  7  6  1  6  0  0  0
  7  8  1  0  0  0  0
  7  9  1  0  0  0  0
 10  9  1  1  0  0  0
 10 11  1  0  0  0  0
 10 12  1  0  0  0  0
 11 16  1  0  0  0  0
 12 13  1  6  0  0  0
 12 14  1  0  0  0  0
 14 15  1  1  0  0  0
 14 16  1  0  0  0  0
 16 27  1  6  0  0  0
 18 19  2  0  0  0  0
 18 23  1  0  0  0  0
 19 20  1  0  0  0  0
 20 21  2  0  0  0  0
 21 22  1  0  0  0  0
 21 27  1  0  0  0  0
 22 23  2  0  0  0  0
 22 25  1  0  0  0  0
 23 24  1  0  0  0  0
 25 26  2  0  0  0  0
 26 27  1  0  0  0  0
M  END
>  <CHROM.1>
9.41266295,-51.82479457,-173.32036663,67.42021552,-168.82987986,60.90639566
-56.96121270,53.39475003,47.27074302,22.20556962,1.58143493,0.89356464,0.16858857

>  <Name>
ligand

>  <RI>
0

>  <Rbt.Current_Directory>
/home/itssahil/PROJECTS/Mol_Feturizer/New_Systems/rnas/3GX2

>  <Rbt.Executable>
rbdock ($Id: //depot/dev/client3/rdock/2013.1/src/exe/rbdock.cxx#4 $)

>  <Rbt.Library>
libRbt.so (2013.1, Build901 2013/11/27)

>  <Rbt.Parameter_File>
/export/apps/rDock/src/rDock_2013.1_src/data/scripts/dock_solv.prm

>  <Rbt.Receptor>
prm/blind_docking_80.prm

>  <SCORE>
-16.6043

>  <SCORE.INTER>
-14.066

>  <SCORE.INTER.CONST>
1

>  <SCORE.INTER.POLAR>
0

>  <SCORE.INTER.ROT>
7

>  <SCORE.INTER.SOLV>
15.9962

>  <SCORE.INTER.VDW>
-22.9761

>  <SCORE.INTER.norm>
-0.520962

>  <SCORE.INTRA>
-2.53832

>  <SCORE.INTRA.DIHEDRAL>
-8.06823

>  <SCORE.INTRA.DIHEDRAL.0>
13.9704

>  <SCORE.INTRA.POLAR>
0

>  <SCORE.INTRA.POLAR.0>
0

>  <SCORE.INTRA.REPUL>
0

>  <SCORE.INTRA.REPUL.0>
0

>  <SCORE.INTRA.SOLV>
0.661322

>  <SCORE.INTRA.SOLV.lig_0>
-70.9758

>  <SCORE.INTRA.VDW>
1.16513

>  <SCORE.INTRA.VDW.0>
-2.70686

>  <SCORE.INTRA.norm>
-0.094012

>  <SCORE.RESTR>
0

>  <SCORE.RESTR.CAVITY>
0

>  <SCORE.RESTR.norm>
0

>  <SCORE.SYSTEM>
0

>  <SCORE.SYSTEM.CONST>
0

>  <SCORE.SYSTEM.DIHEDRAL>
0

>  <SCORE.SYSTEM.SOLV>
0

>  <SCORE.SYSTEM.norm>
0

>  <SCORE.heavy>
27

>  <SCORE.norm>
-0.614974

>  <RMSD>
15.906

$$$$
ligand
 OpenBabel11021811473D
libRbt.so/2013.1/901 2013/11/27
 27 29  0  0  0  0  0  0  0  0999 V2000
   50.8287   51.9566   24.4746 N   0  0  0  0  0  0  0  0  0  0  0  0
   52.1938   52.4469   24.2980 C   0  0  2  0  0  0  0  0  0  0  0  0
   52.2777   53.8481   23.6890 C   0  0  0  0  0  0  0  0  0  0  0  0
   53.3344   54.3843   23.6367 O   0  0  0  0  0  0  0  0  0  0  0  0
   53.1567   51.4424   23.6310 C   0  0  0  0  0  0  0  0  0  0  0  0
   53.3504   50.0357   24.2625 C   0  0  0  0  0  0  0  0  0  0  0  0
   54.4002   49.1256   23.5711 C   0  0  2  0  0  0  0  0  0  0  0  0
   55.7653   49.6374   23.6920 N   0  0  0  0  0  0  0  0  0  0  0  0
   54.0036   48.7795   22.1027 C   0  0  0  0  0  0  0  0  0  0  0  0
   54.7862   47.6410   21.3652 C   0  0  1  0  0  0  0  0  0  0  0  0
   54.7597   46.2903   21.9148 O   0  0  0  0  0  0  0  0  0  0  0  0
   54.4877   47.4511   19.8517 C   0  0  1  0  0  0  0  0  0  0  0  0
   54.8743   48.5019   18.9564 O   0  0  0  0  0  0  0  0  0  0  0  0
   54.9111   45.9838   19.5327 C   0  0  1  0  0  0  0  0  0  0  0  0
   56.0542   45.7836   18.7362 O   0  0  0  0  0  0  0  0  0  0  0  0
   54.8370   45.3052   20.9041 C   0  0  2  0  0  0  0  0  0  0  0  0
   51.2626   54.2552   22.8004 O   0  0  0  0  0  0  0  0  0  0  0  0
   52.1889   41.7076   23.9915 N   0  0  0  0  0  0  0  0  0  0  0  0
   53.3187   42.4578   24.3373 C   0  0  0  0  0  0  0  0  0  0  0  0
   53.9042   43.3856   23.3723 N   0  0  0  0  0  0  0  0  0  0  0  0
   53.3482   43.5248   22.1286 C   0  0  0  0  0  0  0  0  0  0  0  0
   52.2123   42.7647   21.7881 C   0  0  0  0  0  0  0  0  0  0  0  0
   51.6298   41.8396   22.7500 C   0  0  0  0  0  0  0  0  0  0  0  0
   50.4491   41.0498   22.3984 N   0  0  0  0  0  0  0  0  0  0  0  0
   51.8402   43.1020   20.4358 N   0  0  0  0  0  0  0  0  0  0  0  0
   52.7603   44.0675   19.9636 C   0  0  0  0  0  0  0  0  0  0  0  0
   53.7005   44.3438   20.9978 N   0  0  0  0  0  0  0  0  0  0  0  0
  2  1  1  6  0  0  0
  2  3  1  0  0  0  0
  2  5  1  0  0  0  0
  3  4  1  0  0  0  0
  3 17  1  0  0  0  0
  5  6  1  0  0  0  0
  7  6  1  6  0  0  0
  7  8  1  0  0  0  0
  7  9  1  0  0  0  0
 10  9  1  1  0  0  0
 10 11  1  0  0  0  0
 10 12  1  0  0  0  0
 11 16  1  0  0  0  0
 12 13  1  6  0  0  0
 12 14  1  0  0  0  0
 14 15  1  1  0  0  0
 14 16  1  0  0  0  0
 16 27  1  6  0  0  0
 18 19  2  0  0  0  0
 18 23  1  0  0  0  0
 19 20  1  0  0  0  0
 20 21  2  0  0  0  0
 21 22  1  0  0  0  0
 21 27  1  0  0  0  0
 22 23  2  0  0  0  0
 22 25  1  0  0  0  0
 23 24  1  0  0  0  0
 25 26  2  0  0  0  0
 26 27  1  0  0  0  0
M  END
>  <CHROM.1>
172.26935679,-56.13631442,-176.50353236,66.13290342,-167.36800427,60.57491872
-57.75178802,53.38290161,47.23176031,22.18646280,1.58842296,0.89213318,0.15315776

>  <Name>
ligand

>  <RI>
0

>  <Rbt.Current_Directory>
/home/itssahil/PROJECTS/Mol_Feturizer/New_Systems/rnas/3GX2

>  <Rbt.Executable>
rbdock ($Id: //depot/dev/client3/rdock/2013.1/src/exe/rbdock.cxx#4 $)

>  <Rbt.Library>
libRbt.so (2013.1, Build901 2013/11/27)

>  <Rbt.Parameter_File>
/export/apps/rDock/src/rDock_2013.1_src/data/scripts/dock_solv.prm

>  <Rbt.Receptor>
prm/blind_docking_80.prm

>  <SCORE>
-16.8015

>  <SCORE.INTER>
-14.0339

>  <SCORE.INTER.CONST>
1

>  <SCORE.INTER.POLAR>
0

>  <SCORE.INTER.ROT>
7

>  <SCORE.INTER.SOLV>
16.3861

>  <SCORE.INTER.VDW>
-23.0846

>  <SCORE.INTER.norm>
-0.519774

>  <SCORE.INTRA>
-2.76763

>  <SCORE.INTRA.DIHEDRAL>
-8.55403

>  <SCORE.INTRA.DIHEDRAL.0>
13.9704

>  <SCORE.INTRA.POLAR>
0

>  <SCORE.INTRA.POLAR.0>
0

>  <SCORE.INTRA.REPUL>
0

>  <SCORE.INTRA.REPUL.0>
0

>  <SCORE.INTRA.SOLV>
0.69436

>  <SCORE.INTRA.SOLV.lig_0>
-70.9758

>  <SCORE.INTRA.VDW>
1.1622

>  <SCORE.INTRA.VDW.0>
-2.70686

>  <SCORE.INTRA.norm>
-0.102505

>  <SCORE.RESTR>
0

>  <SCORE.RESTR.CAVITY>
0

>  <SCORE.RESTR.norm>
0

>  <SCORE.SYSTEM>
0

>  <SCORE.SYSTEM.CONST>
0

>  <SCORE.SYSTEM.DIHEDRAL>
0

>  <SCORE.SYSTEM.SOLV>
0

>  <SCORE.SYSTEM.norm>
0

>  <SCORE.heavy>
27

>  <SCORE.norm>
-0.622279

>  <RMSD>
15.923

$$$$
ligand
 OpenBabel11021811473D
libRbt.so/2013.1/901 2013/11/27
 27 29  0  0  0  0  0  0  0  0999 V2000
   51.8828   52.7459   25.3435 N   0  0  0  0  0  0  0  0  0  0  0  0
   52.0225   52.4972   23.9104 C   0  0  2  0  0  0  0  0  0  0  0  0
   50.7677   52.8221   23.0973 C   0  0  0  0  0  0  0  0  0  0  0  0
   49.7986   53.1960   23.6700 O   0  0  0  0  0  0  0  0  0  0  0  0
   52.6333   51.1262   23.5522 C   0  0  0  0  0  0  0  0  0  0  0  0
   54.1173   50.8344   23.9095 C   0  0  0  0  0  0  0  0  0  0  0  0
   54.6314   49.4159   23.5462 C   0  0  2  0  0  0  0  0  0  0  0  0
   56.0398   49.2159   23.8874 N   0  0  0  0  0  0  0  0  0  0  0  0
   54.2971   49.0278   22.0728 C   0  0  0  0  0  0  0  0  0  0  0  0
   55.1176   47.8773   21.3978 C   0  0  1  0  0  0  0  0  0  0  0  0
   55.3481   46.6415   22.1374 O   0  0  0  0  0  0  0  0  0  0  0  0
   54.6438   47.4080   19.9939 C   0  0  1  0  0  0  0  0  0  0  0  0
   54.7599   48.3328   18.9047 O   0  0  0  0  0  0  0  0  0  0  0  0
   55.2132   45.9644   19.8320 C   0  0  1  0  0  0  0  0  0  0  0  0
   56.2533   45.7638   18.9054 O   0  0  0  0  0  0  0  0  0  0  0  0
   55.4187   45.5178   21.2829 C   0  0  2  0  0  0  0  0  0  0  0  0
   50.9162   53.1374   21.7319 O   0  0  0  0  0  0  0  0  0  0  0  0
   51.2228   42.4039   19.8048 N   0  0  0  0  0  0  0  0  0  0  0  0
   51.8975   43.3497   19.0245 C   0  0  0  0  0  0  0  0  0  0  0  0
   53.0139   44.1033   19.5910 N   0  0  0  0  0  0  0  0  0  0  0  0
   53.4035   43.8848   20.8855 C   0  0  0  0  0  0  0  0  0  0  0  0
   52.7178   42.9324   21.6645 C   0  0  0  0  0  0  0  0  0  0  0  0
   51.6049   42.1823   21.0994 C   0  0  0  0  0  0  0  0  0  0  0  0
   50.8919   41.1918   21.9069 N   0  0  0  0  0  0  0  0  0  0  0  0
   53.3262   42.9059   22.9722 N   0  0  0  0  0  0  0  0  0  0  0  0
   54.3801   43.8496   22.9765 C   0  0  0  0  0  0  0  0  0  0  0  0
   54.4452   44.4647   21.6929 N   0  0  0  0  0  0  0  0  0  0  0  0
  2  1  1  1  0  0  0
  2  3  1  0  0  0  0
  2  5  1  0  0  0  0
  3  4  1  0  0  0  0
  3 17  1  0  0  0  0
  5  6  1  0  0  0  0
  7  6  1  6  0  0  0
  7  8  1  0  0  0  0
  7  9  1  0  0  0  0
 10  9  1  1  0  0  0
 10 11  1  0  0  0  0
 10 12  1  0  0  0  0
 11 16  1  0  0  0  0
 12 13  1  6  0  0  0
 12 14  1  0  0  0  0
 14 15  1  6  0  0  0
 14 16  1  0  0  0  0
 16 27  1  1  0  0  0
 18 19  2  0  0  0  0
 18 23  1  0  0  0  0
 19 20  1  0  0  0  0
 20 21  2  0  0  0  0
 21 22  1  0  0  0  0
 21 27  1  0  0  0  0
 22 23  2  0  0  0  0
 22 25  1  0  0  0  0
 23 24  1  0  0  0  0
 25 26  2  0  0  0  0
 26 27  1  0  0  0  0
M  END
>  <CHROM.1>
-2.29623869,-67.18410076,178.35765484,178.99376355,160.23510866,45.86455396
122.95344809,53.36683549,47.27619620,21.80470865,1.69009855,0.29503139,0.25998096

>  <Name>
ligand

>  <RI>
0

>  <Rbt.Current_Directory>
/home/itssahil/PROJECTS/Mol_Feturizer/New_Systems/rnas/3GX2

>  <Rbt.Executable>
rbdock ($Id: //depot/dev/client3/rdock/2013.1/src/exe/rbdock.cxx#4 $)

>  <Rbt.Library>
libRbt.so (2013.1, Build901 2013/11/27)

>  <Rbt.Parameter_File>
/export/apps/rDock/src/rDock_2013.1_src/data/scripts/dock_solv.prm

>  <Rbt.Receptor>
prm/blind_docking_80.prm

>  <SCORE>
-16.8486

>  <SCORE.INTER>
-15.0721

>  <SCORE.INTER.CONST>
1

>  <SCORE.INTER.POLAR>
0

>  <SCORE.INTER.ROT>
7

>  <SCORE.INTER.SOLV>
16.8114

>  <SCORE.INTER.VDW>
-23.9185

>  <SCORE.INTER.norm>
-0.558224

>  <SCORE.INTRA>
-1.77651

>  <SCORE.INTRA.DIHEDRAL>
-7.00493

>  <SCORE.INTRA.DIHEDRAL.0>
13.9704

>  <SCORE.INTRA.POLAR>
0

>  <SCORE.INTRA.POLAR.0>
0

>  <SCORE.INTRA.REPUL>
0

>  <SCORE.INTRA.REPUL.0>
0

>  <SCORE.INTRA.SOLV>
0.810157

>  <SCORE.INTRA.SOLV.lig_0>
-70.9758

>  <SCORE.INTRA.VDW>
1.32087

>  <SCORE.INTRA.VDW.0>
-2.70686

>  <SCORE.INTRA.norm>
-0.0657968

>  <SCORE.RESTR>
0

>  <SCORE.RESTR.CAVITY>
0

>  <SCORE.RESTR.norm>
0

>  <SCORE.SYSTEM>
0

>  <SCORE.SYSTEM.CONST>
0

>  <SCORE.SYSTEM.DIHEDRAL>
0

>  <SCORE.SYSTEM.SOLV>
0

>  <SCORE.SYSTEM.norm>
0

>  <SCORE.heavy>
27

>  <SCORE.norm>
-0.624021

>  <RMSD>
16.003

$$$$
ligand
 OpenBabel11021811473D
libRbt.so/2013.1/901 2013/11/27
 27 29  0  0  0  0  0  0  0  0999 V2000
   53.5667   56.8292   10.9809 N   0  0  0  0  0  0  0  0  0  0  0  0
   54.7391   57.5838   11.4180 C   0  0  2  0  0  0  0  0  0  0  0  0
   56.0599   57.0709   10.8404 C   0  0  0  0  0  0  0  0  0  0  0  0
   56.1624   55.9158   10.5912 O   0  0  0  0  0  0  0  0  0  0  0  0
   54.8073   57.8430   12.9376 C   0  0  0  0  0  0  0  0  0  0  0  0
   54.9919   56.6442   13.9092 C   0  0  0  0  0  0  0  0  0  0  0  0
   55.0845   57.0059   15.4155 C   0  0  2  0  0  0  0  0  0  0  0  0
   56.2797   57.7838   15.7419 N   0  0  0  0  0  0  0  0  0  0  0  0
   54.8958   55.7589   16.3334 C   0  0  0  0  0  0  0  0  0  0  0  0
   53.5385   54.9805   16.2678 C   0  0  1  0  0  0  0  0  0  0  0  0
   53.3033   53.8839   17.2002 O   0  0  0  0  0  0  0  0  0  0  0  0
   52.2386   55.8303   16.3307 C   0  0  1  0  0  0  0  0  0  0  0  0
   51.9598   56.7090   15.2328 O   0  0  0  0  0  0  0  0  0  0  0  0
   51.1308   54.8467   16.8200 C   0  0  1  0  0  0  0  0  0  0  0  0
   50.1383   54.4583   15.9008 O   0  0  0  0  0  0  0  0  0  0  0  0
   51.9370   53.7616   17.5407 C   0  0  2  0  0  0  0  0  0  0  0  0
   56.9057   57.9870   10.1838 O   0  0  0  0  0  0  0  0  0  0  0  0
   48.4025   53.4901   21.6542 N   0  0  0  0  0  0  0  0  0  0  0  0
   48.1253   53.3932   20.2858 C   0  0  0  0  0  0  0  0  0  0  0  0
   49.2096   53.4899   19.3111 N   0  0  0  0  0  0  0  0  0  0  0  0
   50.4990   53.6738   19.7340 C   0  0  0  0  0  0  0  0  0  0  0  0
   50.7690   53.7722   21.1129 C   0  0  0  0  0  0  0  0  0  0  0  0
   49.6878   53.6764   22.0837 C   0  0  0  0  0  0  0  0  0  0  0  0
   49.9664   53.7775   23.5167 N   0  0  0  0  0  0  0  0  0  0  0  0
   52.1896   53.9625   21.2757 N   0  0  0  0  0  0  0  0  0  0  0  0
   52.7726   53.9808   19.9868 C   0  0  0  0  0  0  0  0  0  0  0  0
   51.7424   53.8016   19.0190 N   0  0  0  0  0  0  0  0  0  0  0  0
  2  1  1  1  0  0  0
  2  3  1  0  0  0  0
  2  5  1  0  0  0  0
  3  4  1  0  0  0  0
  3 17  1  0  0  0  0
  5  6  1  0  0  0  0
  7  6  1  6  0  0  0
  7  8  1  0  0  0  0
  7  9  1  0  0  0  0
 10  9  1  1  0  0  0
 10 11  1  0  0  0  0
 10 12  1  0  0  0  0
 11 16  1  0  0  0  0
 12 13  1  6  0  0  0
 12 14  1  0  0  0  0
 14 15  1  6  0  0  0
 14 16  1  0  0  0  0
 16 27  1  1  0  0  0
 18 19  2  0  0  0  0
 18 23  1  0  0  0  0
 19 20  1  0  0  0  0
 20 21  2  0  0  0  0
 21 22  1  0  0  0  0
 21 27  1  0  0  0  0
 22 23  2  0  0  0  0
 22 25  1  0  0  0  0
 23 24  1  0  0  0  0
 25 26  2  0  0  0  0
 26 27  1  0  0  0  0
M  END
>  <CHROM.1>
-30.30993854,66.09243672,178.54161837,-65.61515744,-61.47466139,-174.77819631
-178.37491453,52.70635639,55.30097479,16.57644746,1.03267682,-0.30337776
-1.37876956

>  <Name>
ligand

>  <RI>
0

>  <Rbt.Current_Directory>
/home/itssahil/PROJECTS/Mol_Feturizer/New_Systems/rnas/3GX2

>  <Rbt.Executable>
rbdock ($Id: //depot/dev/client3/rdock/2013.1/src/exe/rbdock.cxx#4 $)

>  <Rbt.Library>
libRbt.so (2013.1, Build901 2013/11/27)

>  <Rbt.Parameter_File>
/export/apps/rDock/src/rDock_2013.1_src/data/scripts/dock_solv.prm

>  <Rbt.Receptor>
prm/blind_docking_100.prm

>  <SCORE>
-13.3647

>  <SCORE.INTER>
-9.19326

>  <SCORE.INTER.CONST>
1

>  <SCORE.INTER.POLAR>
0

>  <SCORE.INTER.ROT>
7

>  <SCORE.INTER.SOLV>
17.9661

>  <SCORE.INTER.VDW>
-20.3842

>  <SCORE.INTER.norm>
-0.340491

>  <SCORE.INTRA>
-4.17149

>  <SCORE.INTRA.DIHEDRAL>
-9.21079

>  <SCORE.INTRA.DIHEDRAL.0>
13.9704

>  <SCORE.INTRA.POLAR>
0

>  <SCORE.INTRA.POLAR.0>
0

>  <SCORE.INTRA.REPUL>
0

>  <SCORE.INTRA.REPUL.0>
0

>  <SCORE.INTRA.SOLV>
0.503213

>  <SCORE.INTRA.SOLV.lig_0>
-70.9758

>  <SCORE.INTRA.VDW>
0.1823

>  <SCORE.INTRA.VDW.0>
-2.70686

>  <SCORE.INTRA.norm>
-0.1545

>  <SCORE.RESTR>
0

>  <SCORE.RESTR.CAVITY>
0

>  <SCORE.RESTR.norm>
0

>  <SCORE.SYSTEM>
0

>  <SCORE.SYSTEM.CONST>
0

>  <SCORE.SYSTEM.DIHEDRAL>
0

>  <SCORE.SYSTEM.SOLV>
0

>  <SCORE.SYSTEM.norm>
0

>  <SCORE.heavy>
27

>  <SCORE.norm>
-0.494991

>  <RMSD>
16.073

$$$$
ligand
 OpenBabel11021811473D
libRbt.so/2013.1/901 2013/11/27
 27 29  0  0  0  0  0  0  0  0999 V2000
   52.5199   53.0422   25.4458 N   0  0  0  0  0  0  0  0  0  0  0  0
   51.8232   51.8987   24.8609 C   0  0  2  0  0  0  0  0  0  0  0  0
   50.5771   51.4663   25.6364 C   0  0  0  0  0  0  0  0  0  0  0  0
   49.8625   50.6498   25.1571 O   0  0  0  0  0  0  0  0  0  0  0  0
   52.7368   50.7144   24.4815 C   0  0  0  0  0  0  0  0  0  0  0  0
   53.9589   50.9595   23.5532 C   0  0  0  0  0  0  0  0  0  0  0  0
   54.8353   49.7150   23.2506 C   0  0  2  0  0  0  0  0  0  0  0  0
   56.2165   50.0596   22.9138 N   0  0  0  0  0  0  0  0  0  0  0  0
   54.1693   48.7652   22.2078 C   0  0  0  0  0  0  0  0  0  0  0  0
   55.0803   47.7675   21.4160 C   0  0  1  0  0  0  0  0  0  0  0  0
   55.6460   46.6175   22.1120 O   0  0  0  0  0  0  0  0  0  0  0  0
   54.4981   47.1784   20.1007 C   0  0  1  0  0  0  0  0  0  0  0  0
   54.2748   48.0771   19.0063 O   0  0  0  0  0  0  0  0  0  0  0  0
   55.2969   45.8611   19.8543 C   0  0  1  0  0  0  0  0  0  0  0  0
   56.2057   45.8297   18.7801 O   0  0  0  0  0  0  0  0  0  0  0  0
   55.7970   45.5021   21.2571 C   0  0  2  0  0  0  0  0  0  0  0  0
   50.5578   51.6528   27.0330 O   0  0  0  0  0  0  0  0  0  0  0  0
   51.5541   42.1338   20.8838 N   0  0  0  0  0  0  0  0  0  0  0  0
   51.8339   43.2432   20.0776 C   0  0  0  0  0  0  0  0  0  0  0  0
   53.0313   44.0435   20.3245 N   0  0  0  0  0  0  0  0  0  0  0  0
   53.8829   43.7093   21.3435 C   0  0  0  0  0  0  0  0  0  0  0  0
   53.5928   42.5924   22.1512 C   0  0  0  0  0  0  0  0  0  0  0  0
   52.3989   41.7957   21.9051 C   0  0  0  0  0  0  0  0  0  0  0  0
   52.0964   40.6345   22.7426 N   0  0  0  0  0  0  0  0  0  0  0  0
   54.6402   42.4711   23.1357 N   0  0  0  0  0  0  0  0  0  0  0  0
   55.5608   43.5229   22.9174 C   0  0  0  0  0  0  0  0  0  0  0  0
   55.1104   44.2993   21.8109 N   0  0  0  0  0  0  0  0  0  0  0  0
  2  1  1  1  0  0  0
  2  3  1  0  0  0  0
  2  5  1  0  0  0  0
  3  4  1  0  0  0  0
  3 17  1  0  0  0  0
  5  6  1  0  0  0  0
  7  6  1  6  0  0  0
  7  8  1  0  0  0  0
  7  9  1  0  0  0  0
 10  9  1  1  0  0  0
 10 11  1  0  0  0  0
 10 12  1  0  0  0  0
 11 16  1  0  0  0  0
 12 13  1  6  0  0  0
 12 14  1  0  0  0  0
 14 15  1  6  0  0  0
 14 16  1  0  0  0  0
 16 27  1  1  0  0  0
 18 19  2  0  0  0  0
 18 23  1  0  0  0  0
 19 20  1  0  0  0  0
 20 21  2  0  0  0  0
 21 22  1  0  0  0  0
 21 27  1  0  0  0  0
 22 23  2  0  0  0  0
 22 25  1  0  0  0  0
 23 24  1  0  0  0  0
 25 26  2  0  0  0  0
 26 27  1  0  0  0  0
M  END
>  <CHROM.1>
171.42633336,-54.11772521,178.80771056,-154.36964829,158.65099800,72.01244484
106.41075039,53.60997066,46.94215112,22.40450086,1.81458033,0.70250903,0.27069358

>  <Name>
ligand

>  <RI>
0

>  <Rbt.Current_Directory>
/home/itssahil/PROJECTS/Mol_Feturizer/New_Systems/rnas/3GX2

>  <Rbt.Executable>
rbdock ($Id: //depot/dev/client3/rdock/2013.1/src/exe/rbdock.cxx#4 $)

>  <Rbt.Library>
libRbt.so (2013.1, Build901 2013/11/27)

>  <Rbt.Parameter_File>
/export/apps/rDock/src/rDock_2013.1_src/data/scripts/dock_solv.prm

>  <Rbt.Receptor>
prm/blind_docking_100.prm

>  <SCORE>
-16.9045

>  <SCORE.INTER>
-15.4274

>  <SCORE.INTER.CONST>
1

>  <SCORE.INTER.POLAR>
0

>  <SCORE.INTER.ROT>
7

>  <SCORE.INTER.SOLV>
17.6918

>  <SCORE.INTER.VDW>
-24.4489

>  <SCORE.INTER.norm>
-0.571386

>  <SCORE.INTRA>
-1.4771

>  <SCORE.INTRA.DIHEDRAL>
-5.19308

>  <SCORE.INTRA.DIHEDRAL.0>
13.9704

>  <SCORE.INTRA.POLAR>
0

>  <SCORE.INTRA.POLAR.0>
0

>  <SCORE.INTRA.REPUL>
0

>  <SCORE.INTRA.REPUL.0>
0

>  <SCORE.INTRA.SOLV>
0.741156

>  <SCORE.INTRA.SOLV.lig_0>
-70.9758

>  <SCORE.INTRA.VDW>
0.748866

>  <SCORE.INTRA.VDW.0>
-2.70686

>  <SCORE.INTRA.norm>
-0.0547073

>  <SCORE.RESTR>
0

>  <SCORE.RESTR.CAVITY>
0

>  <SCORE.RESTR.norm>
0

>  <SCORE.SYSTEM>
0

>  <SCORE.SYSTEM.CONST>
0

>  <SCORE.SYSTEM.DIHEDRAL>
0

>  <SCORE.SYSTEM.SOLV>
0

>  <SCORE.SYSTEM.norm>
0

>  <SCORE.heavy>
27

>  <SCORE.norm>
-0.626093

>  <RMSD>
16.076

$$$$
ligand
 OpenBabel11021811473D
libRbt.so/2013.1/901 2013/11/27
 27 29  0  0  0  0  0  0  0  0999 V2000
   54.6919   58.8088   12.5308 N   0  0  0  0  0  0  0  0  0  0  0  0
   55.4406   57.7947   11.7918 C   0  0  2  0  0  0  0  0  0  0  0  0
   55.4834   58.0312   10.2806 C   0  0  0  0  0  0  0  0  0  0  0  0
   54.5329   58.5028    9.7506 O   0  0  0  0  0  0  0  0  0  0  0  0
   55.0900   56.3386   12.1631 C   0  0  0  0  0  0  0  0  0  0  0  0
   55.4785   55.7934   13.5656 C   0  0  0  0  0  0  0  0  0  0  0  0
   55.0802   56.6874   14.7700 C   0  0  2  0  0  0  0  0  0  0  0  0
   56.0479   57.7524   15.0332 N   0  0  0  0  0  0  0  0  0  0  0  0
   54.7339   55.8473   16.0379 C   0  0  0  0  0  0  0  0  0  0  0  0
   53.3791   55.0625   16.0680 C   0  0  1  0  0  0  0  0  0  0  0  0
   53.1823   54.0242   17.0732 O   0  0  0  0  0  0  0  0  0  0  0  0
   52.0779   55.9109   16.1251 C   0  0  1  0  0  0  0  0  0  0  0  0
   51.7562   56.7202   14.9864 O   0  0  0  0  0  0  0  0  0  0  0  0
   50.9930   54.9558   16.7125 C   0  0  1  0  0  0  0  0  0  0  0  0
   49.9706   54.5092   15.8544 O   0  0  0  0  0  0  0  0  0  0  0  0
   51.8295   53.9190   17.4689 C   0  0  2  0  0  0  0  0  0  0  0  0
   56.7408   58.1498    9.6556 O   0  0  0  0  0  0  0  0  0  0  0  0
   48.5371   53.4498   21.7615 N   0  0  0  0  0  0  0  0  0  0  0  0
   48.2269   53.2016   20.4195 C   0  0  0  0  0  0  0  0  0  0  0  0
   49.2456   53.3821   19.3877 N   0  0  0  0  0  0  0  0  0  0  0  0
   50.5061   53.7925   19.7312 C   0  0  0  0  0  0  0  0  0  0  0  0
   50.8094   54.0418   21.0840 C   0  0  0  0  0  0  0  0  0  0  0  0
   49.7934   53.8625   22.1116 C   0  0  0  0  0  0  0  0  0  0  0  0
   50.1069   54.1201   23.5176 N   0  0  0  0  0  0  0  0  0  0  0  0
   52.1886   54.4574   21.1615 N   0  0  0  0  0  0  0  0  0  0  0  0
   52.7127   54.4594   19.8474 C   0  0  0  0  0  0  0  0  0  0  0  0
   51.6869   54.0486   18.9479 N   0  0  0  0  0  0  0  0  0  0  0  0
  2  1  1  1  0  0  0
  2  3  1  0  0  0  0
  2  5  1  0  0  0  0
  3  4  1  0  0  0  0
  3 17  1  0  0  0  0
  5  6  1  0  0  0  0
  7  6  1  6  0  0  0
  7  8  1  0  0  0  0
  7  9  1  0  0  0  0
 10  9  1  1  0  0  0
 10 11  1  0  0  0  0
 10 12  1  0  0  0  0
 11 16  1  0  0  0  0
 12 13  1  6  0  0  0
 12 14  1  0  0  0  0
 14 15  1  6  0  0  0
 14 16  1  0  0  0  0
 16 27  1  1  0  0  0
 18 19  2  0  0  0  0
 18 23  1  0  0  0  0
 19 20  1  0  0  0  0
 20 21  2  0  0  0  0
 21 22  1  0  0  0  0
 21 27  1  0  0  0  0
 22 23  2  0  0  0  0
 22 25  1  0  0  0  0
 23 24  1  0  0  0  0
 25 26  2  0  0  0  0
 26 27  1  0  0  0  0
M  END
>  <CHROM.1>
-35.06961688,-68.53668669,49.28393460,-83.31843501,-73.43528832,164.92880984
-169.72116680,52.66476816,55.52418212,16.42774525,-1.07005146,0.26442314
1.82623442

>  <Name>
ligand

>  <RI>
0

>  <Rbt.Current_Directory>
/home/itssahil/PROJECTS/Mol_Feturizer/New_Systems/rnas/3GX2

>  <Rbt.Executable>
rbdock ($Id: //depot/dev/client3/rdock/2013.1/src/exe/rbdock.cxx#4 $)

>  <Rbt.Library>
libRbt.so (2013.1, Build901 2013/11/27)

>  <Rbt.Parameter_File>
/export/apps/rDock/src/rDock_2013.1_src/data/scripts/dock_solv.prm

>  <Rbt.Receptor>
prm/blind_docking_100.prm

>  <SCORE>
-11.22

>  <SCORE.INTER>
-10.1033

>  <SCORE.INTER.CONST>
1

>  <SCORE.INTER.POLAR>
0

>  <SCORE.INTER.ROT>
7

>  <SCORE.INTER.SOLV>
16.6992

>  <SCORE.INTER.VDW>
-20.5686

>  <SCORE.INTER.norm>
-0.374195

>  <SCORE.INTRA>
-1.11676

>  <SCORE.INTRA.DIHEDRAL>
-5.59522

>  <SCORE.INTRA.DIHEDRAL.0>
13.9704

>  <SCORE.INTRA.POLAR>
0

>  <SCORE.INTRA.POLAR.0>
0

>  <SCORE.INTRA.REPUL>
0

>  <SCORE.INTRA.REPUL.0>
0

>  <SCORE.INTRA.SOLV>
3.63525

>  <SCORE.INTRA.SOLV.lig_0>
-70.9758

>  <SCORE.INTRA.VDW>
-0.13677

>  <SCORE.INTRA.VDW.0>
-2.70686

>  <SCORE.INTRA.norm>
-0.0413614

>  <SCORE.RESTR>
0

>  <SCORE.RESTR.CAVITY>
0

>  <SCORE.RESTR.norm>
0

>  <SCORE.SYSTEM>
0

>  <SCORE.SYSTEM.CONST>
0

>  <SCORE.SYSTEM.DIHEDRAL>
0

>  <SCORE.SYSTEM.SOLV>
0

>  <SCORE.SYSTEM.norm>
0

>  <SCORE.heavy>
27

>  <SCORE.norm>
-0.415557

>  <RMSD>
16.150

$$$$
ligand
 OpenBabel11021811473D
libRbt.so/2013.1/901 2013/11/27
 27 29  0  0  0  0  0  0  0  0999 V2000
   52.8069   51.8484   24.9865 N   0  0  0  0  0  0  0  0  0  0  0  0
   53.6635   52.7328   24.1998 C   0  0  2  0  0  0  0  0  0  0  0  0
   52.9449   53.4245   23.0394 C   0  0  0  0  0  0  0  0  0  0  0  0
   53.3299   54.4887   22.6841 O   0  0  0  0  0  0  0  0  0  0  0  0
   55.0174   52.1175   23.7879 C   0  0  0  0  0  0  0  0  0  0  0  0
   55.0444   50.9424   22.7712 C   0  0  0  0  0  0  0  0  0  0  0  0
   54.2345   49.6821   23.1765 C   0  0  2  0  0  0  0  0  0  0  0  0
   54.8629   48.9254   24.2593 N   0  0  0  0  0  0  0  0  0  0  0  0
   53.8656   48.7982   21.9454 C   0  0  0  0  0  0  0  0  0  0  0  0
   54.9635   47.8569   21.3446 C   0  0  1  0  0  0  0  0  0  0  0  0
   55.4877   46.7670   22.1597 O   0  0  0  0  0  0  0  0  0  0  0  0
   54.6494   47.1996   19.9715 C   0  0  1  0  0  0  0  0  0  0  0  0
   54.5456   48.0570   18.8273 O   0  0  0  0  0  0  0  0  0  0  0  0
   55.5700   45.9420   19.9005 C   0  0  1  0  0  0  0  0  0  0  0  0
   56.6431   45.9585   18.9900 O   0  0  0  0  0  0  0  0  0  0  0  0
   55.8567   45.6496   21.3767 C   0  0  2  0  0  0  0  0  0  0  0  0
   52.2084   52.6307   22.1378 O   0  0  0  0  0  0  0  0  0  0  0  0
   51.6263   42.2969   20.7851 N   0  0  0  0  0  0  0  0  0  0  0  0
   51.9000   43.4592   20.0551 C   0  0  0  0  0  0  0  0  0  0  0  0
   53.0947   44.2460   20.3532 N   0  0  0  0  0  0  0  0  0  0  0  0
   53.9499   43.8472   21.3456 C   0  0  0  0  0  0  0  0  0  0  0  0
   53.6660   42.6772   22.0767 C   0  0  0  0  0  0  0  0  0  0  0  0
   52.4748   41.8941   21.7797 C   0  0  0  0  0  0  0  0  0  0  0  0
   52.1787   40.6777   22.5375 N   0  0  0  0  0  0  0  0  0  0  0  0
   54.7160   42.4940   23.0487 N   0  0  0  0  0  0  0  0  0  0  0  0
   55.6320   43.5620   22.9001 C   0  0  0  0  0  0  0  0  0  0  0  0
   55.1761   44.4094   21.8493 N   0  0  0  0  0  0  0  0  0  0  0  0
  2  1  1  6  0  0  0
  2  3  1  0  0  0  0
  2  5  1  0  0  0  0
  3  4  1  0  0  0  0
  3 17  1  0  0  0  0
  5  6  1  0  0  0  0
  7  6  1  6  0  0  0
  7  8  1  0  0  0  0
  7  9  1  0  0  0  0
 10  9  1  1  0  0  0
 10 11  1  0  0  0  0
 10 12  1  0  0  0  0
 11 16  1  0  0  0  0
 12 13  1  6  0  0  0
 12 14  1  0  0  0  0
 14 15  1  6  0  0  0
 14 16  1  0  0  0  0
 16 27  1  1  0  0  0
 18 19  2  0  0  0  0
 18 23  1  0  0  0  0
 19 20  1  0  0  0  0
 20 21  2  0  0  0  0
 21 22  1  0  0  0  0
 21 27  1  0  0  0  0
 22 23  2  0  0  0  0
 22 25  1  0  0  0  0
 23 24  1  0  0  0  0
 25 26  2  0  0  0  0
 26 27  1  0  0  0  0
M  END
>  <CHROM.1>
150.77213069,67.73199327,-57.88799135,-72.13293265,78.78115273,64.11529698
94.75368108,54.09398977,47.27433255,21.92022117,1.56858043,0.93524295,0.18897293

>  <Name>
ligand

>  <RI>
0

>  <Rbt.Current_Directory>
/home/itssahil/PROJECTS/Mol_Feturizer/New_Systems/rnas/3GX2

>  <Rbt.Executable>
rbdock ($Id: //depot/dev/client3/rdock/2013.1/src/exe/rbdock.cxx#4 $)

>  <Rbt.Library>
libRbt.so (2013.1, Build901 2013/11/27)

>  <Rbt.Parameter_File>
/export/apps/rDock/src/rDock_2013.1_src/data/scripts/dock_solv.prm

>  <Rbt.Receptor>
prm/blind_docking_80.prm

>  <SCORE>
-15.4102

>  <SCORE.INTER>
-13.5504

>  <SCORE.INTER.CONST>
1

>  <SCORE.INTER.POLAR>
0

>  <SCORE.INTER.ROT>
7

>  <SCORE.INTER.SOLV>
16.7998

>  <SCORE.INTER.VDW>
-22.9002

>  <SCORE.INTER.norm>
-0.501866

>  <SCORE.INTRA>
-1.85987

>  <SCORE.INTRA.DIHEDRAL>
-6.99985

>  <SCORE.INTRA.DIHEDRAL.0>
13.9704

>  <SCORE.INTRA.POLAR>
0

>  <SCORE.INTRA.POLAR.0>
0

>  <SCORE.INTRA.REPUL>
0

>  <SCORE.INTRA.REPUL.0>
0

>  <SCORE.INTRA.SOLV>
4.17312

>  <SCORE.INTRA.SOLV.lig_0>
-70.9758

>  <SCORE.INTRA.VDW>
-0.446501

>  <SCORE.INTRA.VDW.0>
-2.70686

>  <SCORE.INTRA.norm>
-0.0688839

>  <SCORE.RESTR>
0

>  <SCORE.RESTR.CAVITY>
0

>  <SCORE.RESTR.norm>
0

>  <SCORE.SYSTEM>
0

>  <SCORE.SYSTEM.CONST>
0

>  <SCORE.SYSTEM.DIHEDRAL>
0

>  <SCORE.SYSTEM.SOLV>
0

>  <SCORE.SYSTEM.norm>
0

>  <SCORE.heavy>
27

>  <SCORE.norm>
-0.57075

>  <RMSD>
16.161

$$$$
ligand
 OpenBabel11021811473D
libRbt.so/2013.1/901 2013/11/27
 27 29  0  0  0  0  0  0  0  0999 V2000
   51.9498   52.7415   22.2292 N   0  0  0  0  0  0  0  0  0  0  0  0
   53.2247   52.3566   21.6278 C   0  0  2  0  0  0  0  0  0  0  0  0
   53.4033   52.8383   20.1865 C   0  0  0  0  0  0  0  0  0  0  0  0
   52.4385   52.9980   19.5154 O   0  0  0  0  0  0  0  0  0  0  0  0
   53.6031   50.8727   21.8174 C   0  0  0  0  0  0  0  0  0  0  0  0
   53.5504   50.2468   23.2389 C   0  0  0  0  0  0  0  0  0  0  0  0
   54.1176   48.8075   23.3628 C   0  0  2  0  0  0  0  0  0  0  0  0
   54.0933   48.3021   24.7354 N   0  0  0  0  0  0  0  0  0  0  0  0
   55.5137   48.6641   22.6819 C   0  0  0  0  0  0  0  0  0  0  0  0
   55.7172   47.5261   21.6255 C   0  0  1  0  0  0  0  0  0  0  0  0
   55.8287   46.1454   22.0820 O   0  0  0  0  0  0  0  0  0  0  0  0
   54.6989   47.4671   20.4527 C   0  0  1  0  0  0  0  0  0  0  0  0
   54.7002   48.5474   19.5103 O   0  0  0  0  0  0  0  0  0  0  0  0
   54.7633   45.9988   19.9291 C   0  0  1  0  0  0  0  0  0  0  0  0
   55.3437   45.7716   18.6672 O   0  0  0  0  0  0  0  0  0  0  0  0
   55.3029   45.2318   21.1404 C   0  0  2  0  0  0  0  0  0  0  0  0
   54.5880   53.5232   19.8502 O   0  0  0  0  0  0  0  0  0  0  0  0
   50.8334   42.2496   20.3546 N   0  0  0  0  0  0  0  0  0  0  0  0
   51.5486   42.9798   19.3985 C   0  0  0  0  0  0  0  0  0  0  0  0
   52.7384   43.7314   19.7917 N   0  0  0  0  0  0  0  0  0  0  0  0
   53.1573   43.7217   21.0954 C   0  0  0  0  0  0  0  0  0  0  0  0
   52.4306   42.9857   22.0516 C   0  0  0  0  0  0  0  0  0  0  0  0
   51.2446   42.2375   21.6592 C   0  0  0  0  0  0  0  0  0  0  0  0
   50.4889   41.4716   22.6510 N   0  0  0  0  0  0  0  0  0  0  0  0
   53.0824   43.1489   23.3281 N   0  0  0  0  0  0  0  0  0  0  0  0
   54.2039   43.9895   23.1351 C   0  0  0  0  0  0  0  0  0  0  0  0
   54.2684   44.3530   21.7590 N   0  0  0  0  0  0  0  0  0  0  0  0
  2  1  1  6  0  0  0
  2  3  1  0  0  0  0
  2  5  1  0  0  0  0
  3  4  1  0  0  0  0
  3 17  1  0  0  0  0
  5  6  1  0  0  0  0
  7  6  1  1  0  0  0
  7  8  1  0  0  0  0
  7  9  1  0  0  0  0
 10  9  1  1  0  0  0
 10 11  1  0  0  0  0
 10 12  1  0  0  0  0
 11 16  1  0  0  0  0
 12 13  1  6  0  0  0
 12 14  1  0  0  0  0
 14 15  1  6  0  0  0
 14 16  1  0  0  0  0
 16 27  1  1  0  0  0
 18 19  2  0  0  0  0
 18 23  1  0  0  0  0
 19 20  1  0  0  0  0
 20 21  2  0  0  0  0
 21 22  1  0  0  0  0
 21 27  1  0  0  0  0
 22 23  2  0  0  0  0
 22 25  1  0  0  0  0
 23 24  1  0  0  0  0
 25 26  2  0  0  0  0
 26 27  1  0  0  0  0
M  END
>  <CHROM.1>
-27.97882824,-50.39547256,-172.53100096,177.40263990,-126.79414534,-73.83945911
152.36576820,53.62565089,47.13404630,21.36560733,-0.38369083,1.43602174,1.92130562

>  <Name>
ligand

>  <RI>
0

>  <Rbt.Current_Directory>
/home/itssahil/PROJECTS/Mol_Feturizer/New_Systems/rnas/3GX2

>  <Rbt.Executable>
rbdock ($Id: //depot/dev/client3/rdock/2013.1/src/exe/rbdock.cxx#4 $)

>  <Rbt.Library>
libRbt.so (2013.1, Build901 2013/11/27)

>  <Rbt.Parameter_File>
/export/apps/rDock/src/rDock_2013.1_src/data/scripts/dock_solv.prm

>  <Rbt.Receptor>
prm/blind_docking_80.prm

>  <SCORE>
-10.2469

>  <SCORE.INTER>
-9.57105

>  <SCORE.INTER.CONST>
1

>  <SCORE.INTER.POLAR>
0

>  <SCORE.INTER.ROT>
7

>  <SCORE.INTER.SOLV>
21.1729

>  <SCORE.INTER.VDW>
-21.705

>  <SCORE.INTER.norm>
-0.354483

>  <SCORE.INTRA>
-0.678441

>  <SCORE.INTRA.DIHEDRAL>
-3.04485

>  <SCORE.INTRA.DIHEDRAL.0>
13.9704

>  <SCORE.INTRA.POLAR>
0

>  <SCORE.INTRA.POLAR.0>
0

>  <SCORE.INTRA.REPUL>
0

>  <SCORE.INTRA.REPUL.0>
0

>  <SCORE.INTRA.SOLV>
0.461208

>  <SCORE.INTRA.SOLV.lig_0>
-70.9758

>  <SCORE.INTRA.VDW>
0.613379

>  <SCORE.INTRA.VDW.0>
-2.70686

>  <SCORE.INTRA.norm>
-0.0251275

>  <SCORE.RESTR>
0.00256544

>  <SCORE.RESTR.CAVITY>
0.00256544

>  <SCORE.RESTR.norm>
9.50163e-05

>  <SCORE.SYSTEM>
0

>  <SCORE.SYSTEM.CONST>
0

>  <SCORE.SYSTEM.DIHEDRAL>
0

>  <SCORE.SYSTEM.SOLV>
0

>  <SCORE.SYSTEM.norm>
0

>  <SCORE.heavy>
27

>  <SCORE.norm>
-0.379516

>  <RMSD>
16.193

$$$$
ligand
 OpenBabel11021811473D
libRbt.so/2013.1/901 2013/11/27
 27 29  0  0  0  0  0  0  0  0999 V2000
   57.1276   52.2921   22.5658 N   0  0  0  0  0  0  0  0  0  0  0  0
   55.6905   52.4942   22.7356 C   0  0  2  0  0  0  0  0  0  0  0  0
   54.9377   51.2468   23.2031 C   0  0  0  0  0  0  0  0  0  0  0  0
   55.3306   50.1819   22.8590 O   0  0  0  0  0  0  0  0  0  0  0  0
   54.9978   53.2082   21.5560 C   0  0  0  0  0  0  0  0  0  0  0  0
   54.9478   52.5143   20.1663 C   0  0  0  0  0  0  0  0  0  0  0  0
   54.2878   53.3354   19.0267 C   0  0  2  0  0  0  0  0  0  0  0  0
   54.9834   54.5933   18.7548 N   0  0  0  0  0  0  0  0  0  0  0  0
   52.7541   53.5182   19.2446 C   0  0  0  0  0  0  0  0  0  0  0  0
   51.8985   54.1143   18.0763 C   0  0  1  0  0  0  0  0  0  0  0  0
   52.3409   55.3435   17.4279 O   0  0  0  0  0  0  0  0  0  0  0  0
   51.5521   53.1575   16.9014 C   0  0  1  0  0  0  0  0  0  0  0  0
   50.6825   52.0509   17.1736 O   0  0  0  0  0  0  0  0  0  0  0  0
   51.2405   54.0922   15.6917 C   0  0  1  0  0  0  0  0  0  0  0  0
   49.9076   54.1769   15.2476 O   0  0  0  0  0  0  0  0  0  0  0  0
   51.9802   55.3816   16.0618 C   0  0  2  0  0  0  0  0  0  0  0  0
   54.1448   51.3378   24.3644 O   0  0  0  0  0  0  0  0  0  0  0  0
   54.3526   58.6285   12.4126 N   0  0  0  0  0  0  0  0  0  0  0  0
   53.1078   58.8052   13.0275 C   0  0  0  0  0  0  0  0  0  0  0  0
   52.6229   57.8220   13.9935 N   0  0  0  0  0  0  0  0  0  0  0  0
   53.3854   56.7269   14.3007 C   0  0  0  0  0  0  0  0  0  0  0  0
   54.6361   56.5556   13.6759 C   0  0  0  0  0  0  0  0  0  0  0  0
   55.1185   57.5355   12.7127 C   0  0  0  0  0  0  0  0  0  0  0  0
   56.4180   57.3598   12.0633 N   0  0  0  0  0  0  0  0  0  0  0  0
   55.2193   55.3342   14.1748 N   0  0  0  0  0  0  0  0  0  0  0  0
   54.3112   54.7701   15.1014 C   0  0  0  0  0  0  0  0  0  0  0  0
   53.1705   55.6186   15.1946 N   0  0  0  0  0  0  0  0  0  0  0  0
  2  1  1  6  0  0  0
  2  3  1  0  0  0  0
  2  5  1  0  0  0  0
  3  4  1  0  0  0  0
  3 17  1  0  0  0  0
  5  6  1  0  0  0  0
  7  6  1  1  0  0  0
  7  8  1  0  0  0  0
  7  9  1  0  0  0  0
 10  9  1  6  0  0  0
 10 11  1  0  0  0  0
 10 12  1  0  0  0  0
 11 16  1  0  0  0  0
 12 13  1  1  0  0  0
 12 14  1  0  0  0  0
 14 15  1  1  0  0  0
 14 16  1  0  0  0  0
 16 27  1  6  0  0  0
 18 19  2  0  0  0  0
 18 23  1  0  0  0  0
 19 20  1  0  0  0  0
 20 21  2  0  0  0  0
 21 22  1  0  0  0  0
 21 27  1  0  0  0  0
 22 23  2  0  0  0  0
 22 25  1  0  0  0  0
 23 24  1  0  0  0  0
 25 26  2  0  0  0  0
 26 27  1  0  0  0  0
M  END
>  <CHROM.1>
-32.06639427,64.65849434,-177.34142993,61.02780381,-170.02794731,-49.93153730
-119.31725495,53.71482270,54.43200228,17.44722902,-1.45009441,-0.28958305
-1.00745816

>  <Name>
ligand

>  <RI>
0

>  <Rbt.Current_Directory>
/home/itssahil/PROJECTS/Mol_Feturizer/New_Systems/rnas/3GX2

>  <Rbt.Executable>
rbdock ($Id: //depot/dev/client3/rdock/2013.1/src/exe/rbdock.cxx#4 $)

>  <Rbt.Library>
libRbt.so (2013.1, Build901 2013/11/27)

>  <Rbt.Parameter_File>
/export/apps/rDock/src/rDock_2013.1_src/data/scripts/dock_solv.prm

>  <Rbt.Receptor>
prm/blind_docking_100.prm

>  <SCORE>
-11.1175

>  <SCORE.INTER>
-7.97825

>  <SCORE.INTER.CONST>
1

>  <SCORE.INTER.POLAR>
0

>  <SCORE.INTER.ROT>
7

>  <SCORE.INTER.SOLV>
21.3678

>  <SCORE.INTER.VDW>
-20.7081

>  <SCORE.INTER.norm>
-0.295491

>  <SCORE.INTRA>
-3.13925

>  <SCORE.INTRA.DIHEDRAL>
-8.70518

>  <SCORE.INTRA.DIHEDRAL.0>
13.9704

>  <SCORE.INTRA.POLAR>
0

>  <SCORE.INTRA.POLAR.0>
0

>  <SCORE.INTRA.REPUL>
0

>  <SCORE.INTRA.REPUL.0>
0

>  <SCORE.INTRA.SOLV>
2.24599

>  <SCORE.INTRA.SOLV.lig_0>
-70.9758

>  <SCORE.INTRA.VDW>
0.0903459

>  <SCORE.INTRA.VDW.0>
-2.70686

>  <SCORE.INTRA.norm>
-0.116269

>  <SCORE.RESTR>
0

>  <SCORE.RESTR.CAVITY>
0

>  <SCORE.RESTR.norm>
0

>  <SCORE.SYSTEM>
0

>  <SCORE.SYSTEM.CONST>
0

>  <SCORE.SYSTEM.DIHEDRAL>
0

>  <SCORE.SYSTEM.SOLV>
0

>  <SCORE.SYSTEM.norm>
0

>  <SCORE.heavy>
27

>  <SCORE.norm>
-0.411759

>  <RMSD>
16.517

$$$$
ligand
 OpenBabel11021811473D
libRbt.so/2013.1/901 2013/11/27
 27 29  0  0  0  0  0  0  0  0999 V2000
   51.3758   39.8857   23.2535 N   0  0  0  0  0  0  0  0  0  0  0  0
   51.4616   39.6882   21.8083 C   0  0  2  0  0  0  0  0  0  0  0  0
   52.2348   38.4336   21.3966 C   0  0  0  0  0  0  0  0  0  0  0  0
   53.3085   38.2468   21.8648 O   0  0  0  0  0  0  0  0  0  0  0  0
   51.8806   40.9416   21.0117 C   0  0  0  0  0  0  0  0  0  0  0  0
   50.8475   42.0788   20.7782 C   0  0  0  0  0  0  0  0  0  0  0  0
   50.4164   42.8675   22.0433 C   0  0  2  0  0  0  0  0  0  0  0  0
   49.3676   43.8505   21.7716 N   0  0  0  0  0  0  0  0  0  0  0  0
   51.6366   43.4689   22.8067 C   0  0  0  0  0  0  0  0  0  0  0  0
   52.9960   43.6189   22.0439 C   0  0  1  0  0  0  0  0  0  0  0  0
   53.1368   44.6719   21.0446 O   0  0  0  0  0  0  0  0  0  0  0  0
   54.2794   43.7332   22.9131 C   0  0  1  0  0  0  0  0  0  0  0  0
   54.6678   42.5904   23.6866 O   0  0  0  0  0  0  0  0  0  0  0  0
   55.3337   44.4267   21.9957 C   0  0  1  0  0  0  0  0  0  0  0  0
   56.4177   43.6564   21.5345 O   0  0  0  0  0  0  0  0  0  0  0  0
   54.4608   45.1617   20.9737 C   0  0  2  0  0  0  0  0  0  0  0  0
   51.5108   37.3347   20.8927 O   0  0  0  0  0  0  0  0  0  0  0  0
   55.7422   49.2858   24.2656 N   0  0  0  0  0  0  0  0  0  0  0  0
   55.8856   47.9170   24.5201 C   0  0  0  0  0  0  0  0  0  0  0  0
   55.4846   46.9393   23.5110 N   0  0  0  0  0  0  0  0  0  0  0  0
   54.9695   47.3596   22.3138 C   0  0  0  0  0  0  0  0  0  0  0  0
   54.8268   48.7389   22.0665 C   0  0  0  0  0  0  0  0  0  0  0  0
   55.2260   49.7127   23.0729 C   0  0  0  0  0  0  0  0  0  0  0  0
   55.0794   51.1461   22.8174 N   0  0  0  0  0  0  0  0  0  0  0  0
   54.2657   48.8987   20.7472 N   0  0  0  0  0  0  0  0  0  0  0  0
   54.0690   47.6076   20.2032 C   0  0  0  0  0  0  0  0  0  0  0  0
   54.5006   46.6414   21.1572 N   0  0  0  0  0  0  0  0  0  0  0  0
  2  1  1  1  0  0  0
  2  3  1  0  0  0  0
  2  5  1  0  0  0  0
  3  4  1  0  0  0  0
  3 17  1  0  0  0  0
  5  6  1  0  0  0  0
  7  6  1  6  0  0  0
  7  8  1  0  0  0  0
  7  9  1  0  0  0  0
 10  9  1  1  0  0  0
 10 11  1  0  0  0  0
 10 12  1  0  0  0  0
 11 16  1  0  0  0  0
 12 13  1  6  0  0  0
 12 14  1  0  0  0  0
 14 15  1  6  0  0  0
 14 16  1  0  0  0  0
 16 27  1  1  0  0  0
 18 19  2  0  0  0  0
 18 23  1  0  0  0  0
 19 20  1  0  0  0  0
 20 21  2  0  0  0  0
 21 22  1  0  0  0  0
 21 27  1  0  0  0  0
 22 23  2  0  0  0  0
 22 25  1  0  0  0  0
 23 24  1  0  0  0  0
 25 26  2  0  0  0  0
 26 27  1  0  0  0  0
M  END
>  <CHROM.1>
-50.35482874,-75.80494356,67.77146295,-175.49167143,18.86088456,73.81970371
107.13593150,53.50983977,44.25061642,22.07927283,-1.94217347,-0.32078010
-0.02219398

>  <Name>
ligand

>  <RI>
0

>  <Rbt.Current_Directory>
/home/itssahil/PROJECTS/Mol_Feturizer/New_Systems/rnas/3GX2

>  <Rbt.Executable>
rbdock ($Id: //depot/dev/client3/rdock/2013.1/src/exe/rbdock.cxx#4 $)

>  <Rbt.Library>
libRbt.so (2013.1, Build901 2013/11/27)

>  <Rbt.Parameter_File>
/export/apps/rDock/src/rDock_2013.1_src/data/scripts/dock_solv.prm

>  <Rbt.Receptor>
prm/blind_docking_80.prm

>  <SCORE>
-11.0554

>  <SCORE.INTER>
-11.4526

>  <SCORE.INTER.CONST>
1

>  <SCORE.INTER.POLAR>
0

>  <SCORE.INTER.ROT>
7

>  <SCORE.INTER.SOLV>
18.9035

>  <SCORE.INTER.VDW>
-22.2029

>  <SCORE.INTER.norm>
-0.424171

>  <SCORE.INTRA>
0.397253

>  <SCORE.INTRA.DIHEDRAL>
-3.43677

>  <SCORE.INTRA.DIHEDRAL.0>
13.9704

>  <SCORE.INTRA.POLAR>
0

>  <SCORE.INTRA.POLAR.0>
0

>  <SCORE.INTRA.REPUL>
0

>  <SCORE.INTRA.REPUL.0>
0

>  <SCORE.INTRA.SOLV>
1.69492

>  <SCORE.INTRA.SOLV.lig_0>
-70.9758

>  <SCORE.INTRA.VDW>
1.26818

>  <SCORE.INTRA.VDW.0>
-2.70686

>  <SCORE.INTRA.norm>
0.0147131

>  <SCORE.RESTR>
0

>  <SCORE.RESTR.CAVITY>
0

>  <SCORE.RESTR.norm>
0

>  <SCORE.SYSTEM>
0

>  <SCORE.SYSTEM.CONST>
0

>  <SCORE.SYSTEM.DIHEDRAL>
0

>  <SCORE.SYSTEM.SOLV>
0

>  <SCORE.SYSTEM.norm>
0

>  <SCORE.heavy>
27

>  <SCORE.norm>
-0.409458

>  <RMSD>
17.108

$$$$
ligand
 OpenBabel11021811473D
libRbt.so/2013.1/901 2013/11/27
 27 29  0  0  0  0  0  0  0  0999 V2000
   52.8974   38.8352   21.1464 N   0  0  0  0  0  0  0  0  0  0  0  0
   51.7257   38.6934   22.0079 C   0  0  2  0  0  0  0  0  0  0  0  0
   50.6856   37.7004   21.4850 C   0  0  0  0  0  0  0  0  0  0  0  0
   49.5439   38.0217   21.4786 O   0  0  0  0  0  0  0  0  0  0  0  0
   51.1039   40.0271   22.4724 C   0  0  0  0  0  0  0  0  0  0  0  0
   51.9141   40.9602   23.4147 C   0  0  0  0  0  0  0  0  0  0  0  0
   51.2890   42.3554   23.6816 C   0  0  2  0  0  0  0  0  0  0  0  0
   49.8956   42.2806   24.1205 N   0  0  0  0  0  0  0  0  0  0  0  0
   51.5031   43.3349   22.4866 C   0  0  0  0  0  0  0  0  0  0  0  0
   52.9433   43.4833   21.8899 C   0  0  1  0  0  0  0  0  0  0  0  0
   53.1933   44.5112   20.8859 O   0  0  0  0  0  0  0  0  0  0  0  0
   54.1106   43.6383   22.9044 C   0  0  1  0  0  0  0  0  0  0  0  0
   54.4142   42.5220   23.7510 O   0  0  0  0  0  0  0  0  0  0  0  0
   55.2611   44.3216   22.1022 C   0  0  1  0  0  0  0  0  0  0  0  0
   56.4010   43.5543   21.7973 O   0  0  0  0  0  0  0  0  0  0  0  0
   54.5109   45.0171   20.9619 C   0  0  2  0  0  0  0  0  0  0  0  0
   51.1116   36.6817   20.6095 O   0  0  0  0  0  0  0  0  0  0  0  0
   55.6868   49.2560   24.1456 N   0  0  0  0  0  0  0  0  0  0  0  0
   55.8653   47.8984   24.4351 C   0  0  0  0  0  0  0  0  0  0  0  0
   55.4894   46.8851   23.4518 N   0  0  0  0  0  0  0  0  0  0  0  0
   54.9634   47.2610   22.2447 C   0  0  0  0  0  0  0  0  0  0  0  0
   54.7853   48.6294   21.9621 C   0  0  0  0  0  0  0  0  0  0  0  0
   55.1595   49.6387   22.9428 C   0  0  0  0  0  0  0  0  0  0  0  0
   54.9760   51.0608   22.6507 N   0  0  0  0  0  0  0  0  0  0  0  0
   54.2199   48.7407   20.6397 N   0  0  0  0  0  0  0  0  0  0  0  0
   54.0563   47.4315   20.1292 C   0  0  0  0  0  0  0  0  0  0  0  0
   54.5128   46.5015   21.1074 N   0  0  0  0  0  0  0  0  0  0  0  0
  2  1  1  6  0  0  0
  2  3  1  0  0  0  0
  2  5  1  0  0  0  0
  3  4  1  0  0  0  0
  3 17  1  0  0  0  0
  5  6  1  0  0  0  0
  7  6  1  6  0  0  0
  7  8  1  0  0  0  0
  7  9  1  0  0  0  0
 10  9  1  1  0  0  0
 10 11  1  0  0  0  0
 10 12  1  0  0  0  0
 11 16  1  0  0  0  0
 12 13  1  6  0  0  0
 12 14  1  0  0  0  0
 14 15  1  6  0  0  0
 14 16  1  0  0  0  0
 16 27  1  1  0  0  0
 18 19  2  0  0  0  0
 18 23  1  0  0  0  0
 19 20  1  0  0  0  0
 20 21  2  0  0  0  0
 21 22  1  0  0  0  0
 21 27  1  0  0  0  0
 22 23  2  0  0  0  0
 22 25  1  0  0  0  0
 23 24  1  0  0  0  0
 25 26  2  0  0  0  0
 26 27  1  0  0  0  0
M  END
>  <CHROM.1>
-133.05717733,-65.87300130,172.42674598,51.69428989,-49.25000197,-172.54043109
114.16892336,53.36958808,43.88937526,22.24071077,-2.05675766,0.61082439,0.35601334

>  <Name>
ligand

>  <RI>
0

>  <Rbt.Current_Directory>
/home/itssahil/PROJECTS/Mol_Feturizer/New_Systems/rnas/3GX2

>  <Rbt.Executable>
rbdock ($Id: //depot/dev/client3/rdock/2013.1/src/exe/rbdock.cxx#4 $)

>  <Rbt.Library>
libRbt.so (2013.1, Build901 2013/11/27)

>  <Rbt.Parameter_File>
/export/apps/rDock/src/rDock_2013.1_src/data/scripts/dock_solv.prm

>  <Rbt.Receptor>
prm/blind_docking_80.prm

>  <SCORE>
-14.4072

>  <SCORE.INTER>
-12.399

>  <SCORE.INTER.CONST>
1

>  <SCORE.INTER.POLAR>
0

>  <SCORE.INTER.ROT>
7

>  <SCORE.INTER.SOLV>
17.6451

>  <SCORE.INTER.VDW>
-22.4143

>  <SCORE.INTER.norm>
-0.459222

>  <SCORE.INTRA>
-2.00817

>  <SCORE.INTRA.DIHEDRAL>
-8.01612

>  <SCORE.INTRA.DIHEDRAL.0>
13.9704

>  <SCORE.INTRA.POLAR>
0

>  <SCORE.INTRA.POLAR.0>
0

>  <SCORE.INTRA.REPUL>
0

>  <SCORE.INTRA.REPUL.0>
0

>  <SCORE.INTRA.SOLV>
0.55912

>  <SCORE.INTRA.SOLV.lig_0>
-70.9758

>  <SCORE.INTRA.VDW>
1.72032

>  <SCORE.INTRA.VDW.0>
-2.70686

>  <SCORE.INTRA.norm>
-0.0743768

>  <SCORE.RESTR>
0

>  <SCORE.RESTR.CAVITY>
0

>  <SCORE.RESTR.norm>
0

>  <SCORE.SYSTEM>
0

>  <SCORE.SYSTEM.CONST>
0

>  <SCORE.SYSTEM.DIHEDRAL>
0

>  <SCORE.SYSTEM.SOLV>
0

>  <SCORE.SYSTEM.norm>
0

>  <SCORE.heavy>
27

>  <SCORE.norm>
-0.533599

>  <RMSD>
17.295

$$$$
ligand
 OpenBabel11021811473D
libRbt.so/2013.1/901 2013/11/27
 27 29  0  0  0  0  0  0  0  0999 V2000
   49.7393   56.0714   19.3082 N   0  0  0  0  0  0  0  0  0  0  0  0
   49.4430   54.6408   19.2841 C   0  0  2  0  0  0  0  0  0  0  0  0
   48.9241   54.0905   20.6142 C   0  0  0  0  0  0  0  0  0  0  0  0
   48.5153   52.9776   20.6497 O   0  0  0  0  0  0  0  0  0  0  0  0
   50.5506   53.7651   18.6618 C   0  0  0  0  0  0  0  0  0  0  0  0
   51.1332   54.1440   17.2718 C   0  0  0  0  0  0  0  0  0  0  0  0
   52.1311   53.1256   16.6591 C   0  0  2  0  0  0  0  0  0  0  0  0
   53.2045   52.7550   17.5812 N   0  0  0  0  0  0  0  0  0  0  0  0
   52.6540   53.5811   15.2618 C   0  0  0  0  0  0  0  0  0  0  0  0
   54.0308   54.3231   15.1840 C   0  0  1  0  0  0  0  0  0  0  0  0
   54.6080   54.6133   13.8764 O   0  0  0  0  0  0  0  0  0  0  0  0
   54.1532   55.6593   15.9685 C   0  0  1  0  0  0  0  0  0  0  0  0
   54.0948   55.6028   17.3998 O   0  0  0  0  0  0  0  0  0  0  0  0
   55.3240   56.4297   15.2832 C   0  0  1  0  0  0  0  0  0  0  0  0
   56.5278   56.5752   15.9979 O   0  0  0  0  0  0  0  0  0  0  0  0
   55.3650   55.8068   13.8842 C   0  0  2  0  0  0  0  0  0  0  0  0
   49.3708   54.6905   21.8084 O   0  0  0  0  0  0  0  0  0  0  0  0
   51.5129   59.3031   12.3272 N   0  0  0  0  0  0  0  0  0  0  0  0
   51.5602   58.5610   13.5129 C   0  0  0  0  0  0  0  0  0  0  0  0
   52.6824   57.6606   13.7681 N   0  0  0  0  0  0  0  0  0  0  0  0
   53.6907   57.5421   12.8492 C   0  0  0  0  0  0  0  0  0  0  0  0
   53.6344   58.2912   11.6577 C   0  0  0  0  0  0  0  0  0  0  0  0
   52.5154   59.1878   11.4037 C   0  0  0  0  0  0  0  0  0  0  0  0
   52.4556   59.9676   10.1669 N   0  0  0  0  0  0  0  0  0  0  0  0
   54.8075   57.9775   10.8790 N   0  0  0  0  0  0  0  0  0  0  0  0
   55.5686   57.0333   11.6074 C   0  0  0  0  0  0  0  0  0  0  0  0
   54.8948   56.7525   12.8310 N   0  0  0  0  0  0  0  0  0  0  0  0
  2  1  1  1  0  0  0
  2  3  1  0  0  0  0
  2  5  1  0  0  0  0
  3  4  1  0  0  0  0
  3 17  1  0  0  0  0
  5  6  1  0  0  0  0
  7  6  1  1  0  0  0
  7  8  1  0  0  0  0
  7  9  1  0  0  0  0
 10  9  1  6  0  0  0
 10 11  1  0  0  0  0
 10 12  1  0  0  0  0
 11 16  1  0  0  0  0
 12 13  1  1  0  0  0
 12 14  1  0  0  0  0
 14 15  1  1  0  0  0
 14 16  1  0  0  0  0
 16 27  1  6  0  0  0
 18 19  2  0  0  0  0
 18 23  1  0  0  0  0
 19 20  1  0  0  0  0
 20 21  2  0  0  0  0
 21 22  1  0  0  0  0
 21 27  1  0  0  0  0
 22 23  2  0  0  0  0
 22 25  1  0  0  0  0
 23 24  1  0  0  0  0
 25 26  2  0  0  0  0
 26 27  1  0  0  0  0
M  END
>  <CHROM.1>
171.60744822,-50.38398350,-173.73940574,-51.23894471,96.61584974,172.76837368
74.15237497,52.68508784,55.90105404,15.52643349,2.04803609,-0.42373764,2.25540913

>  <Name>
ligand

>  <RI>
0

>  <Rbt.Current_Directory>
/home/itssahil/PROJECTS/Mol_Feturizer/New_Systems/rnas/3GX2

>  <Rbt.Executable>
rbdock ($Id: //depot/dev/client3/rdock/2013.1/src/exe/rbdock.cxx#4 $)

>  <Rbt.Library>
libRbt.so (2013.1, Build901 2013/11/27)

>  <Rbt.Parameter_File>
/export/apps/rDock/src/rDock_2013.1_src/data/scripts/dock_solv.prm

>  <Rbt.Receptor>
prm/blind_docking_100.prm

>  <SCORE>
-11.9715

>  <SCORE.INTER>
-10.7632

>  <SCORE.INTER.CONST>
1

>  <SCORE.INTER.POLAR>
0

>  <SCORE.INTER.ROT>
7

>  <SCORE.INTER.SOLV>
16.0316

>  <SCORE.INTER.VDW>
-20.786

>  <SCORE.INTER.norm>
-0.398636

>  <SCORE.INTRA>
-1.20832

>  <SCORE.INTRA.DIHEDRAL>
-4.80107

>  <SCORE.INTRA.DIHEDRAL.0>
13.9704

>  <SCORE.INTRA.POLAR>
0

>  <SCORE.INTRA.POLAR.0>
0

>  <SCORE.INTRA.REPUL>
0

>  <SCORE.INTRA.REPUL.0>
0

>  <SCORE.INTRA.SOLV>
2.8601

>  <SCORE.INTRA.SOLV.lig_0>
-70.9758

>  <SCORE.INTRA.VDW>
-0.237832

>  <SCORE.INTRA.VDW.0>
-2.70686

>  <SCORE.INTRA.norm>
-0.0447526

>  <SCORE.RESTR>
0

>  <SCORE.RESTR.CAVITY>
0

>  <SCORE.RESTR.norm>
0

>  <SCORE.SYSTEM>
0

>  <SCORE.SYSTEM.CONST>
0

>  <SCORE.SYSTEM.DIHEDRAL>
0

>  <SCORE.SYSTEM.SOLV>
0

>  <SCORE.SYSTEM.norm>
0

>  <SCORE.heavy>
27

>  <SCORE.norm>
-0.443389

>  <RMSD>
17.460

$$$$
ligand
 OpenBabel11021811473D
libRbt.so/2013.1/901 2013/11/27
 27 29  0  0  0  0  0  0  0  0999 V2000
   57.5616   35.3215   24.4936 N   0  0  0  0  0  0  0  0  0  0  0  0
   57.7186   36.4049   23.5258 C   0  0  2  0  0  0  0  0  0  0  0  0
   59.0873   37.0873   23.5724 C   0  0  0  0  0  0  0  0  0  0  0  0
   59.5458   37.5142   22.5652 O   0  0  0  0  0  0  0  0  0  0  0  0
   56.5470   37.4084   23.4882 C   0  0  0  0  0  0  0  0  0  0  0  0
   55.2579   37.0480   22.6986 C   0  0  0  0  0  0  0  0  0  0  0  0
   54.1193   38.1013   22.7507 C   0  0  2  0  0  0  0  0  0  0  0  0
   53.0356   37.8153   21.8106 N   0  0  0  0  0  0  0  0  0  0  0  0
   54.6606   39.5598   22.6362 C   0  0  0  0  0  0  0  0  0  0  0  0
   53.7471   40.7366   23.1189 C   0  0  1  0  0  0  0  0  0  0  0  0
   54.3662   41.9836   23.5535 O   0  0  0  0  0  0  0  0  0  0  0  0
   52.6093   41.1813   22.1580 C   0  0  1  0  0  0  0  0  0  0  0  0
   51.5425   40.2562   21.9106 O   0  0  0  0  0  0  0  0  0  0  0  0
   52.2673   42.6441   22.5790 C   0  0  1  0  0  0  0  0  0  0  0  0
   51.0320   42.8787   23.2112 O   0  0  0  0  0  0  0  0  0  0  0  0
   53.5528   43.1050   23.2731 C   0  0  2  0  0  0  0  0  0  0  0  0
   59.5319   37.6155   24.8009 O   0  0  0  0  0  0  0  0  0  0  0  0
   53.7864   45.9341   18.6439 N   0  0  0  0  0  0  0  0  0  0  0  0
   52.8215   44.9918   19.0181 C   0  0  0  0  0  0  0  0  0  0  0  0
   52.9173   44.3213   20.3128 N   0  0  0  0  0  0  0  0  0  0  0  0
   53.9496   44.6142   21.1634 C   0  0  0  0  0  0  0  0  0  0  0  0
   54.9174   45.5624   20.7783 C   0  0  0  0  0  0  0  0  0  0  0  0
   54.8218   46.2297   19.4875 C   0  0  0  0  0  0  0  0  0  0  0  0
   55.8258   47.2158   19.0861 N   0  0  0  0  0  0  0  0  0  0  0  0
   55.8795   45.6756   21.8472 N   0  0  0  0  0  0  0  0  0  0  0  0
   55.4866   44.7882   22.8765 C   0  0  0  0  0  0  0  0  0  0  0  0
   54.2928   44.1233   22.4729 N   0  0  0  0  0  0  0  0  0  0  0  0
  2  1  1  1  0  0  0
  2  3  1  0  0  0  0
  2  5  1  0  0  0  0
  3  4  1  0  0  0  0
  3 17  1  0  0  0  0
  5  6  1  0  0  0  0
  7  6  1  6  0  0  0
  7  8  1  0  0  0  0
  7  9  1  0  0  0  0
 10  9  1  6  0  0  0
 10 11  1  0  0  0  0
 10 12  1  0  0  0  0
 11 16  1  0  0  0  0
 12 13  1  1  0  0  0
 12 14  1  0  0  0  0
 14 15  1  1  0  0  0
 14 16  1  0  0  0  0
 16 27  1  6  0  0  0
 18 19  2  0  0  0  0
 18 23  1  0  0  0  0
 19 20  1  0  0  0  0
 20 21  2  0  0  0  0
 21 22  1  0  0  0  0
 21 27  1  0  0  0  0
 22 23  2  0  0  0  0
 22 25  1  0  0  0  0
 23 24  1  0  0  0  0
 25 26  2  0  0  0  0
 26 27  1  0  0  0  0
M  END
>  <CHROM.1>
147.45680747,-80.59869055,178.35730477,170.06989008,-160.74044070,154.44357626
119.79521853,54.87137897,41.37556636,22.19449226,-1.19230863,-0.00371777
-0.34398893

>  <Name>
ligand

>  <RI>
0

>  <Rbt.Current_Directory>
/home/itssahil/PROJECTS/Mol_Feturizer/New_Systems/rnas/3GX2

>  <Rbt.Executable>
rbdock ($Id: //depot/dev/client3/rdock/2013.1/src/exe/rbdock.cxx#4 $)

>  <Rbt.Library>
libRbt.so (2013.1, Build901 2013/11/27)

>  <Rbt.Parameter_File>
/export/apps/rDock/src/rDock_2013.1_src/data/scripts/dock_solv.prm

>  <Rbt.Receptor>
prm/blind_docking_80.prm

>  <SCORE>
-11.7776

>  <SCORE.INTER>
-11.9476

>  <SCORE.INTER.CONST>
1

>  <SCORE.INTER.POLAR>
0

>  <SCORE.INTER.ROT>
7

>  <SCORE.INTER.SOLV>
25.7418

>  <SCORE.INTER.VDW>
-24.8124

>  <SCORE.INTER.norm>
-0.442506

>  <SCORE.INTRA>
0.170032

>  <SCORE.INTRA.DIHEDRAL>
-3.8359

>  <SCORE.INTRA.DIHEDRAL.0>
13.9704

>  <SCORE.INTRA.POLAR>
0

>  <SCORE.INTRA.POLAR.0>
0

>  <SCORE.INTRA.REPUL>
0

>  <SCORE.INTRA.REPUL.0>
0

>  <SCORE.INTRA.SOLV>
1.63166

>  <SCORE.INTRA.SOLV.lig_0>
-70.9758

>  <SCORE.INTRA.VDW>
1.27215

>  <SCORE.INTRA.VDW.0>
-2.70686

>  <SCORE.INTRA.norm>
0.00629748

>  <SCORE.RESTR>
0

>  <SCORE.RESTR.CAVITY>
0

>  <SCORE.RESTR.norm>
0

>  <SCORE.SYSTEM>
0

>  <SCORE.SYSTEM.CONST>
0

>  <SCORE.SYSTEM.DIHEDRAL>
0

>  <SCORE.SYSTEM.SOLV>
0

>  <SCORE.SYSTEM.norm>
0

>  <SCORE.heavy>
27

>  <SCORE.norm>
-0.436208

>  <RMSD>
19.776

$$$$
ligand
 OpenBabel11021811473D
libRbt.so/2013.1/901 2013/11/27
 27 29  0  0  0  0  0  0  0  0999 V2000
   48.0007   67.3068   10.8526 N   0  0  0  0  0  0  0  0  0  0  0  0
   48.5416   66.4380   11.8954 C   0  0  2  0  0  0  0  0  0  0  0  0
   49.2288   67.1899   13.0372 C   0  0  0  0  0  0  0  0  0  0  0  0
   48.7517   68.2068   13.4181 O   0  0  0  0  0  0  0  0  0  0  0  0
   49.3726   65.2472   11.3732 C   0  0  0  0  0  0  0  0  0  0  0  0
   50.6740   65.5186   10.5683 C   0  0  0  0  0  0  0  0  0  0  0  0
   51.3575   64.2694    9.9513 C   0  0  2  0  0  0  0  0  0  0  0  0
   50.4726   63.5172    9.0619 N   0  0  0  0  0  0  0  0  0  0  0  0
   52.0409   63.3774   11.0332 C   0  0  0  0  0  0  0  0  0  0  0  0
   53.0428   62.2688   10.5647 C   0  0  1  0  0  0  0  0  0  0  0  0
   53.9425   61.6662   11.5417 O   0  0  0  0  0  0  0  0  0  0  0  0
   52.4421   61.0612    9.7922 C   0  0  1  0  0  0  0  0  0  0  0  0
   51.8775   61.3086    8.4979 O   0  0  0  0  0  0  0  0  0  0  0  0
   53.4805   59.9094    9.9632 C   0  0  1  0  0  0  0  0  0  0  0  0
   54.2228   59.5152    8.8343 O   0  0  0  0  0  0  0  0  0  0  0  0
   54.2298   60.3165   11.2359 C   0  0  2  0  0  0  0  0  0  0  0  0
   50.0742   66.4677   13.9029 O   0  0  0  0  0  0  0  0  0  0  0  0
   55.2543   55.5982   13.7209 N   0  0  0  0  0  0  0  0  0  0  0  0
   55.8377   56.0858   12.5459 C   0  0  0  0  0  0  0  0  0  0  0  0
   55.4375   57.3874   12.0160 N   0  0  0  0  0  0  0  0  0  0  0  0
   54.4925   58.1335   12.6682 C   0  0  0  0  0  0  0  0  0  0  0  0
   53.9089   57.6345   13.8491 C   0  0  0  0  0  0  0  0  0  0  0  0
   54.3077   56.3369   14.3762 C   0  0  0  0  0  0  0  0  0  0  0  0
   53.7033   55.8172   15.6034 N   0  0  0  0  0  0  0  0  0  0  0  0
   52.9568   58.6098   14.3215 N   0  0  0  0  0  0  0  0  0  0  0  0
   52.9688   59.6973   13.4167 C   0  0  0  0  0  0  0  0  0  0  0  0
   53.9146   59.4222   12.3873 N   0  0  0  0  0  0  0  0  0  0  0  0
  2  1  1  6  0  0  0
  2  3  1  0  0  0  0
  2  5  1  0  0  0  0
  3  4  1  0  0  0  0
  3 17  1  0  0  0  0
  5  6  1  0  0  0  0
  7  6  1  1  0  0  0
  7  8  1  0  0  0  0
  7  9  1  0  0  0  0
 10  9  1  1  0  0  0
 10 11  1  0  0  0  0
 10 12  1  0  0  0  0
 11 16  1  0  0  0  0
 12 13  1  6  0  0  0
 12 14  1  0  0  0  0
 14 15  1  6  0  0  0
 14 16  1  0  0  0  0
 16 27  1  1  0  0  0
 18 19  2  0  0  0  0
 18 23  1  0  0  0  0
 19 20  1  0  0  0  0
 20 21  2  0  0  0  0
 21 22  1  0  0  0  0
 21 27  1  0  0  0  0
 22 23  2  0  0  0  0
 22 25  1  0  0  0  0
 23 24  1  0  0  0  0
 25 26  2  0  0  0  0
 26 27  1  0  0  0  0
M  END
>  <CHROM.1>
38.76076258,62.27579401,-173.51187290,57.12593691,-166.25654150,164.25706835
-155.24249267,52.33367435,61.54597320,11.82797648,2.75808711,1.02143217,-1.26822755

>  <Name>
ligand

>  <RI>
0

>  <Rbt.Current_Directory>
/home/itssahil/PROJECTS/Mol_Feturizer/New_Systems/rnas/3GX2

>  <Rbt.Executable>
rbdock ($Id: //depot/dev/client3/rdock/2013.1/src/exe/rbdock.cxx#4 $)

>  <Rbt.Library>
libRbt.so (2013.1, Build901 2013/11/27)

>  <Rbt.Parameter_File>
/export/apps/rDock/src/rDock_2013.1_src/data/scripts/dock_solv.prm

>  <Rbt.Receptor>
prm/blind_docking_100.prm

>  <SCORE>
-8.7391

>  <SCORE.INTER>
-7.08482

>  <SCORE.INTER.CONST>
1

>  <SCORE.INTER.POLAR>
0

>  <SCORE.INTER.ROT>
7

>  <SCORE.INTER.SOLV>
13.5692

>  <SCORE.INTER.VDW>
-17.5129

>  <SCORE.INTER.norm>
-0.262401

>  <SCORE.INTRA>
-1.65428

>  <SCORE.INTRA.DIHEDRAL>
-7.38983

>  <SCORE.INTRA.DIHEDRAL.0>
13.9704

>  <SCORE.INTRA.POLAR>
0

>  <SCORE.INTRA.POLAR.0>
0

>  <SCORE.INTRA.REPUL>
0

>  <SCORE.INTRA.REPUL.0>
0

>  <SCORE.INTRA.SOLV>
2.74386

>  <SCORE.INTRA.SOLV.lig_0>
-70.9758

>  <SCORE.INTRA.VDW>
0.668708

>  <SCORE.INTRA.VDW.0>
-2.70686

>  <SCORE.INTRA.norm>
-0.0612696

>  <SCORE.RESTR>
0

>  <SCORE.RESTR.CAVITY>
0

>  <SCORE.RESTR.norm>
0

>  <SCORE.SYSTEM>
0

>  <SCORE.SYSTEM.CONST>
0

>  <SCORE.SYSTEM.DIHEDRAL>
0

>  <SCORE.SYSTEM.SOLV>
0

>  <SCORE.SYSTEM.norm>
0

>  <SCORE.heavy>
27

>  <SCORE.norm>
-0.32367

>  <RMSD>
21.463

$$$$
ligand
 OpenBabel11021811473D
libRbt.so/2013.1/901 2013/11/27
 27 29  0  0  0  0  0  0  0  0999 V2000
   48.3760   67.5825   11.5856 N   0  0  0  0  0  0  0  0  0  0  0  0
   49.4805   67.7112   12.5336 C   0  0  2  0  0  0  0  0  0  0  0  0
   50.3886   68.9144   12.2711 C   0  0  0  0  0  0  0  0  0  0  0  0
   51.3310   69.0806   12.9719 O   0  0  0  0  0  0  0  0  0  0  0  0
   50.2668   66.4076   12.7857 C   0  0  0  0  0  0  0  0  0  0  0  0
   50.5979   65.4721   11.5898 C   0  0  0  0  0  0  0  0  0  0  0  0
   51.5882   64.3162   11.8928 C   0  0  2  0  0  0  0  0  0  0  0  0
   52.9886   64.7337   11.8246 N   0  0  0  0  0  0  0  0  0  0  0  0
   51.2862   63.0439   11.0424 C   0  0  0  0  0  0  0  0  0  0  0  0
   52.4889   62.2585   10.4186 C   0  0  1  0  0  0  0  0  0  0  0  0
   53.5992   61.8614   11.2770 O   0  0  0  0  0  0  0  0  0  0  0  0
   52.1457   60.9770    9.6088 C   0  0  1  0  0  0  0  0  0  0  0  0
   51.4187   61.1345    8.3833 O   0  0  0  0  0  0  0  0  0  0  0  0
   53.4540   60.1270    9.6150 C   0  0  1  0  0  0  0  0  0  0  0  0
   54.1636   59.9965    8.4066 O   0  0  0  0  0  0  0  0  0  0  0  0
   54.1903   60.6497   10.8525 C   0  0  2  0  0  0  0  0  0  0  0  0
   50.3876   69.4874   10.9837 O   0  0  0  0  0  0  0  0  0  0  0  0
   56.1639   55.9063   12.6109 N   0  0  0  0  0  0  0  0  0  0  0  0
   56.4246   56.5363   11.3886 C   0  0  0  0  0  0  0  0  0  0  0  0
   55.8007   57.8210   11.0800 N   0  0  0  0  0  0  0  0  0  0  0  0
   54.9612   58.4122   11.9861 C   0  0  0  0  0  0  0  0  0  0  0  0
   54.7027   57.7705   13.2131 C   0  0  0  0  0  0  0  0  0  0  0  0
   55.3243   56.4898   13.5196 C   0  0  0  0  0  0  0  0  0  0  0  0
   55.0578   55.8221   14.7941 N   0  0  0  0  0  0  0  0  0  0  0  0
   53.7957   58.6009   13.9671 N   0  0  0  0  0  0  0  0  0  0  0  0
   53.5077   59.7447   13.1858 C   0  0  0  0  0  0  0  0  0  0  0  0
   54.2215   59.6473   11.9565 N   0  0  0  0  0  0  0  0  0  0  0  0
  2  1  1  6  0  0  0
  2  3  1  0  0  0  0
  2  5  1  0  0  0  0
  3  4  1  0  0  0  0
  3 17  1  0  0  0  0
  5  6  1  0  0  0  0
  7  6  1  6  0  0  0
  7  8  1  0  0  0  0
  7  9  1  0  0  0  0
 10  9  1  1  0  0  0
 10 11  1  0  0  0  0
 10 12  1  0  0  0  0
 11 16  1  0  0  0  0
 12 13  1  6  0  0  0
 12 14  1  0  0  0  0
 14 15  1  6  0  0  0
 14 16  1  0  0  0  0
 16 27  1  1  0  0  0
 18 19  2  0  0  0  0
 18 23  1  0  0  0  0
 19 20  1  0  0  0  0
 20 21  2  0  0  0  0
 21 22  1  0  0  0  0
 21 27  1  0  0  0  0
 22 23  2  0  0  0  0
 22 25  1  0  0  0  0
 23 24  1  0  0  0  0
 25 26  2  0  0  0  0
 26 27  1  0  0  0  0
M  END
>  <CHROM.1>
-178.21287985,41.16274533,170.10212428,-83.01479808,138.09634335,51.41952727
-167.24779536,52.83467055,62.01468966,11.64615618,2.95092697,-1.12308627
1.32330497

>  <Name>
ligand

>  <RI>
0

>  <Rbt.Current_Directory>
/home/itssahil/PROJECTS/Mol_Feturizer/New_Systems/rnas/3GX2

>  <Rbt.Executable>
rbdock ($Id: //depot/dev/client3/rdock/2013.1/src/exe/rbdock.cxx#4 $)

>  <Rbt.Library>
libRbt.so (2013.1, Build901 2013/11/27)

>  <Rbt.Parameter_File>
/export/apps/rDock/src/rDock_2013.1_src/data/scripts/dock_solv.prm

>  <Rbt.Receptor>
prm/blind_docking_100.prm

>  <SCORE>
-6.60074

>  <SCORE.INTER>
-7.46286

>  <SCORE.INTER.CONST>
1

>  <SCORE.INTER.POLAR>
0

>  <SCORE.INTER.ROT>
7

>  <SCORE.INTER.SOLV>
15.2855

>  <SCORE.INTER.VDW>
-18.3371

>  <SCORE.INTER.norm>
-0.276402

>  <SCORE.INTRA>
0.862127

>  <SCORE.INTRA.DIHEDRAL>
-1.53163

>  <SCORE.INTRA.DIHEDRAL.0>
13.9704

>  <SCORE.INTRA.POLAR>
0

>  <SCORE.INTRA.POLAR.0>
0

>  <SCORE.INTRA.REPUL>
0

>  <SCORE.INTRA.REPUL.0>
0

>  <SCORE.INTRA.SOLV>
1.95236

>  <SCORE.INTRA.SOLV.lig_0>
-70.9758

>  <SCORE.INTRA.VDW>
0.651761

>  <SCORE.INTRA.VDW.0>
-2.70686

>  <SCORE.INTRA.norm>
0.0319306

>  <SCORE.RESTR>
0

>  <SCORE.RESTR.CAVITY>
0

>  <SCORE.RESTR.norm>
0

>  <SCORE.SYSTEM>
0

>  <SCORE.SYSTEM.CONST>
0

>  <SCORE.SYSTEM.DIHEDRAL>
0

>  <SCORE.SYSTEM.SOLV>
0

>  <SCORE.SYSTEM.norm>
0

>  <SCORE.heavy>
27

>  <SCORE.norm>
-0.244472

>  <RMSD>
21.894

$$$$
ligand
 OpenBabel11021811473D
libRbt.so/2013.1/901 2013/11/27
 27 29  0  0  0  0  0  0  0  0999 V2000
   54.1572   59.4004   12.3667 N   0  0  0  0  0  0  0  0  0  0  0  0
   52.8883   59.3504   13.0895 C   0  0  2  0  0  0  0  0  0  0  0  0
   51.7148   58.8382   12.2517 C   0  0  0  0  0  0  0  0  0  0  0  0
   51.9405   58.3431   11.1978 O   0  0  0  0  0  0  0  0  0  0  0  0
   52.5486   60.6304   13.8816 C   0  0  0  0  0  0  0  0  0  0  0  0
   52.5929   62.0076   13.1629 C   0  0  0  0  0  0  0  0  0  0  0  0
   51.6517   62.1589   11.9382 C   0  0  2  0  0  0  0  0  0  0  0  0
   52.3572   62.5744   10.7259 N   0  0  0  0  0  0  0  0  0  0  0  0
   50.4080   63.0448   12.2572 C   0  0  0  0  0  0  0  0  0  0  0  0
   50.6420   64.4917   12.8087 C   0  0  1  0  0  0  0  0  0  0  0  0
   51.4532   65.4240   12.0341 O   0  0  0  0  0  0  0  0  0  0  0  0
   49.3775   65.3071   13.1985 C   0  0  1  0  0  0  0  0  0  0  0  0
   48.6014   64.8466   14.3124 O   0  0  0  0  0  0  0  0  0  0  0  0
   49.8225   66.8015   13.1454 C   0  0  1  0  0  0  0  0  0  0  0  0
   49.9351   67.5015   14.3612 O   0  0  0  0  0  0  0  0  0  0  0  0
   51.0276   66.7616   12.2004 C   0  0  2  0  0  0  0  0  0  0  0  0
   50.5092   58.5218   12.9089 O   0  0  0  0  0  0  0  0  0  0  0  0
   50.6468   71.4057    9.4122 N   0  0  0  0  0  0  0  0  0  0  0  0
   50.9838   71.2479   10.7614 C   0  0  0  0  0  0  0  0  0  0  0  0
   51.0377   69.9119   11.3505 N   0  0  0  0  0  0  0  0  0  0  0  0
   50.7605   68.8114   10.5841 C   0  0  0  0  0  0  0  0  0  0  0  0
   50.4204   68.9793    9.2275 C   0  0  0  0  0  0  0  0  0  0  0  0
   50.3661   70.3111    8.6413 C   0  0  0  0  0  0  0  0  0  0  0  0
   50.0139   70.4874    7.2319 N   0  0  0  0  0  0  0  0  0  0  0  0
   50.1795   67.6733    8.6643 N   0  0  0  0  0  0  0  0  0  0  0  0
   50.3739   66.7188    9.6903 C   0  0  0  0  0  0  0  0  0  0  0  0
   50.7361   67.4037   10.8861 N   0  0  0  0  0  0  0  0  0  0  0  0
  2  1  1  6  0  0  0
  2  3  1  0  0  0  0
  2  5  1  0  0  0  0
  3  4  1  0  0  0  0
  3 17  1  0  0  0  0
  5  6  1  0  0  0  0
  7  6  1  1  0  0  0
  7  8  1  0  0  0  0
  7  9  1  0  0  0  0
 10  9  1  6  0  0  0
 10 11  1  0  0  0  0
 10 12  1  0  0  0  0
 11 16  1  0  0  0  0
 12 13  1  1  0  0  0
 12 14  1  0  0  0  0
 14 15  1  1  0  0  0
 14 16  1  0  0  0  0
 16 27  1  6  0  0  0
 18 19  2  0  0  0  0
 18 23  1  0  0  0  0
 19 20  1  0  0  0  0
 20 21  2  0  0  0  0
 21 22  1  0  0  0  0
 21 27  1  0  0  0  0
 22 23  2  0  0  0  0
 22 25  1  0  0  0  0
 23 24  1  0  0  0  0
 25 26  2  0  0  0  0
 26 27  1  0  0  0  0
M  END
>  <CHROM.1>
11.29267274,51.89436924,59.00730566,-125.31469255,55.67942846,56.69408848
-155.50130497,51.00285581,65.00984298,11.63163191,-1.13945375,1.18905948
-0.66672411

>  <Name>
ligand

>  <RI>
0

>  <Rbt.Current_Directory>
/home/itssahil/PROJECTS/Mol_Feturizer/New_Systems/rnas/3GX2

>  <Rbt.Executable>
rbdock ($Id: //depot/dev/client3/rdock/2013.1/src/exe/rbdock.cxx#4 $)

>  <Rbt.Library>
libRbt.so (2013.1, Build901 2013/11/27)

>  <Rbt.Parameter_File>
/export/apps/rDock/src/rDock_2013.1_src/data/scripts/dock_solv.prm

>  <Rbt.Receptor>
prm/blind_docking_100.prm

>  <SCORE>
-3.39526

>  <SCORE.INTER>
-2.95183

>  <SCORE.INTER.CONST>
1

>  <SCORE.INTER.POLAR>
0

>  <SCORE.INTER.ROT>
7

>  <SCORE.INTER.SOLV>
13.6544

>  <SCORE.INTER.VDW>
-14.786

>  <SCORE.INTER.norm>
-0.109327

>  <SCORE.INTRA>
-0.450314

>  <SCORE.INTRA.DIHEDRAL>
-3.45531

>  <SCORE.INTRA.DIHEDRAL.0>
13.9704

>  <SCORE.INTRA.POLAR>
0

>  <SCORE.INTRA.POLAR.0>
0

>  <SCORE.INTRA.REPUL>
0

>  <SCORE.INTRA.REPUL.0>
0

>  <SCORE.INTRA.SOLV>
2.89046

>  <SCORE.INTRA.SOLV.lig_0>
-70.9758

>  <SCORE.INTRA.VDW>
-0.167889

>  <SCORE.INTRA.VDW.0>
-2.70686

>  <SCORE.INTRA.norm>
-0.0166783

>  <SCORE.RESTR>
0.00688035

>  <SCORE.RESTR.CAVITY>
0.00688035

>  <SCORE.RESTR.norm>
0.000254828

>  <SCORE.SYSTEM>
0

>  <SCORE.SYSTEM.CONST>
0

>  <SCORE.SYSTEM.DIHEDRAL>
0

>  <SCORE.SYSTEM.SOLV>
0

>  <SCORE.SYSTEM.norm>
0

>  <SCORE.heavy>
27

>  <SCORE.norm>
-0.12575

>  <RMSD>
22.080

$$$$
ligand
 OpenBabel11021811473D
libRbt.so/2013.1/901 2013/11/27
 27 29  0  0  0  0  0  0  0  0999 V2000
   51.5586   71.8806    8.2691 N   0  0  0  0  0  0  0  0  0  0  0  0
   50.7895   70.7546    7.7441 C   0  0  2  0  0  0  0  0  0  0  0  0
   49.6020   71.1653    6.8710 C   0  0  0  0  0  0  0  0  0  0  0  0
   48.9773   72.1268    7.1745 O   0  0  0  0  0  0  0  0  0  0  0  0
   50.4237   69.6817    8.7912 C   0  0  0  0  0  0  0  0  0  0  0  0
   49.8179   68.3303    8.3204 C   0  0  0  0  0  0  0  0  0  0  0  0
   50.7813   67.3946    7.5428 C   0  0  2  0  0  0  0  0  0  0  0  0
   50.1045   66.2334    6.9652 N   0  0  0  0  0  0  0  0  0  0  0  0
   52.0394   67.0149    8.3831 C   0  0  0  0  0  0  0  0  0  0  0  0
   51.8294   66.3726    9.7957 C   0  0  1  0  0  0  0  0  0  0  0  0
   51.2275   65.0474    9.8906 O   0  0  0  0  0  0  0  0  0  0  0  0
   53.0720   66.3031   10.7268 C   0  0  1  0  0  0  0  0  0  0  0  0
   53.6201   67.5385   11.2047 O   0  0  0  0  0  0  0  0  0  0  0  0
   52.7559   65.1647   11.7457 C   0  0  1  0  0  0  0  0  0  0  0  0
   52.5010   65.5253   13.0821 O   0  0  0  0  0  0  0  0  0  0  0  0
   51.7206   64.3194   10.9972 C   0  0  2  0  0  0  0  0  0  0  0  0
   49.5707   70.7274    5.5320 O   0  0  0  0  0  0  0  0  0  0  0  0
   54.0422   59.6668   12.5628 N   0  0  0  0  0  0  0  0  0  0  0  0
   53.6546   60.7398   13.3735 C   0  0  0  0  0  0  0  0  0  0  0  0
   53.0397   61.9231   12.7762 N   0  0  0  0  0  0  0  0  0  0  0  0
   52.8396   61.9843   11.4229 C   0  0  0  0  0  0  0  0  0  0  0  0
   53.2343   60.9008   10.6141 C   0  0  0  0  0  0  0  0  0  0  0  0
   53.8478   59.7222   11.2099 C   0  0  0  0  0  0  0  0  0  0  0  0
   54.2577   58.5951   10.3714 N   0  0  0  0  0  0  0  0  0  0  0  0
   52.9131   61.2265    9.2460 N   0  0  0  0  0  0  0  0  0  0  0  0
   52.3252   62.5133    9.2359 C   0  0  0  0  0  0  0  0  0  0  0  0
   52.2692   62.9983   10.5745 N   0  0  0  0  0  0  0  0  0  0  0  0
  2  1  1  1  0  0  0
  2  3  1  0  0  0  0
  2  5  1  0  0  0  0
  3  4  1  0  0  0  0
  3 17  1  0  0  0  0
  5  6  1  0  0  0  0
  7  6  1  1  0  0  0
  7  8  1  0  0  0  0
  7  9  1  0  0  0  0
 10  9  1  6  0  0  0
 10 11  1  0  0  0  0
 10 12  1  0  0  0  0
 11 16  1  0  0  0  0
 12 13  1  1  0  0  0
 12 14  1  0  0  0  0
 14 15  1  1  0  0  0
 14 16  1  0  0  0  0
 16 27  1  6  0  0  0
 18 19  2  0  0  0  0
 18 23  1  0  0  0  0
 19 20  1  0  0  0  0
 20 21  2  0  0  0  0
 21 22  1  0  0  0  0
 21 27  1  0  0  0  0
 22 23  2  0  0  0  0
 22 25  1  0  0  0  0
 23 24  1  0  0  0  0
 25 26  2  0  0  0  0
 26 27  1  0  0  0  0
M  END
>  <CHROM.1>
-37.61248902,-169.89481906,68.99080180,-171.77805179,54.86077212,66.24947461
-179.20857873,51.91051220,65.55461163,9.75336549,-2.37646386,1.14567181,-2.78491492

>  <Name>
ligand

>  <RI>
0

>  <Rbt.Current_Directory>
/home/itssahil/PROJECTS/Mol_Feturizer/New_Systems/rnas/3GX2

>  <Rbt.Executable>
rbdock ($Id: //depot/dev/client3/rdock/2013.1/src/exe/rbdock.cxx#4 $)

>  <Rbt.Library>
libRbt.so (2013.1, Build901 2013/11/27)

>  <Rbt.Parameter_File>
/export/apps/rDock/src/rDock_2013.1_src/data/scripts/dock_solv.prm

>  <Rbt.Receptor>
prm/blind_docking_100.prm

>  <SCORE>
-6.48491

>  <SCORE.INTER>
-2.83592

>  <SCORE.INTER.CONST>
1

>  <SCORE.INTER.POLAR>
0

>  <SCORE.INTER.ROT>
7

>  <SCORE.INTER.SOLV>
13.3288

>  <SCORE.INTER.VDW>
-14.6002

>  <SCORE.INTER.norm>
-0.105034

>  <SCORE.INTRA>
-3.64899

>  <SCORE.INTRA.DIHEDRAL>
-8.52669

>  <SCORE.INTRA.DIHEDRAL.0>
13.9704

>  <SCORE.INTRA.POLAR>
0

>  <SCORE.INTRA.POLAR.0>
0

>  <SCORE.INTRA.REPUL>
0

>  <SCORE.INTRA.REPUL.0>
0

>  <SCORE.INTRA.SOLV>
0.327302

>  <SCORE.INTRA.SOLV.lig_0>
-70.9758

>  <SCORE.INTRA.VDW>
0.450703

>  <SCORE.INTRA.VDW.0>
-2.70686

>  <SCORE.INTRA.norm>
-0.135148

>  <SCORE.RESTR>
0

>  <SCORE.RESTR.CAVITY>
0

>  <SCORE.RESTR.norm>
0

>  <SCORE.SYSTEM>
0

>  <SCORE.SYSTEM.CONST>
0

>  <SCORE.SYSTEM.DIHEDRAL>
0

>  <SCORE.SYSTEM.SOLV>
0

>  <SCORE.SYSTEM.norm>
0

>  <SCORE.heavy>
27

>  <SCORE.norm>
-0.240182

>  <RMSD>
24.165

$$$$
ligand
 OpenBabel11021811473D
libRbt.so/2013.1/901 2013/11/27
 27 29  0  0  0  0  0  0  0  0999 V2000
   54.3232   68.4750   11.0132 N   0  0  0  0  0  0  0  0  0  0  0  0
   53.4435   67.3237   11.2020 C   0  0  2  0  0  0  0  0  0  0  0  0
   54.1793   66.0303   11.5582 C   0  0  0  0  0  0  0  0  0  0  0  0
   55.3592   65.9953   11.4417 O   0  0  0  0  0  0  0  0  0  0  0  0
   52.3902   67.1302   10.0911 C   0  0  0  0  0  0  0  0  0  0  0  0
   52.8545   66.9884    8.6148 C   0  0  0  0  0  0  0  0  0  0  0  0
   51.7218   66.9133    7.5566 C   0  0  2  0  0  0  0  0  0  0  0  0
   50.8180   68.0624    7.6074 N   0  0  0  0  0  0  0  0  0  0  0  0
   50.9745   65.5444    7.5899 C   0  0  0  0  0  0  0  0  0  0  0  0
   51.5688   64.3479    6.7728 C   0  0  1  0  0  0  0  0  0  0  0  0
   52.7817   63.6944    7.2514 O   0  0  0  0  0  0  0  0  0  0  0  0
   50.6021   63.1775    6.4390 C   0  0  1  0  0  0  0  0  0  0  0  0
   49.5136   63.4429    5.5445 O   0  0  0  0  0  0  0  0  0  0  0  0
   51.5253   61.9484    6.1723 C   0  0  1  0  0  0  0  0  0  0  0  0
   51.6260   61.4709    4.8522 O   0  0  0  0  0  0  0  0  0  0  0  0
   52.8073   62.3195    6.9244 C   0  0  2  0  0  0  0  0  0  0  0  0
   53.5546   65.1235   12.4375 O   0  0  0  0  0  0  0  0  0  0  0  0
   52.2088   61.9099   12.3060 N   0  0  0  0  0  0  0  0  0  0  0  0
   51.8381   62.9829   11.4874 C   0  0  0  0  0  0  0  0  0  0  0  0
   52.0773   62.9210   10.0473 N   0  0  0  0  0  0  0  0  0  0  0  0
   52.6627   61.8130    9.4951 C   0  0  0  0  0  0  0  0  0  0  0  0
   53.0344   60.7384   10.3264 C   0  0  0  0  0  0  0  0  0  0  0  0
   52.7965   60.8010   11.7616 C   0  0  0  0  0  0  0  0  0  0  0  0
   53.1811   59.6852   12.6267 N   0  0  0  0  0  0  0  0  0  0  0  0
   53.6227   59.7161    9.4958 N   0  0  0  0  0  0  0  0  0  0  0  0
   53.6053   60.1829    8.1604 C   0  0  0  0  0  0  0  0  0  0  0  0
   53.0130   61.4786    8.1391 N   0  0  0  0  0  0  0  0  0  0  0  0
  2  1  1  6  0  0  0
  2  3  1  0  0  0  0
  2  5  1  0  0  0  0
  3  4  1  0  0  0  0
  3 17  1  0  0  0  0
  5  6  1  0  0  0  0
  7  6  1  1  0  0  0
  7  8  1  0  0  0  0
  7  9  1  0  0  0  0
 10  9  1  1  0  0  0
 10 11  1  0  0  0  0
 10 12  1  0  0  0  0
 11 16  1  0  0  0  0
 12 13  1  6  0  0  0
 12 14  1  0  0  0  0
 14 15  1  6  0  0  0
 14 16  1  0  0  0  0
 16 27  1  1  0  0  0
 18 19  2  0  0  0  0
 18 23  1  0  0  0  0
 19 20  1  0  0  0  0
 20 21  2  0  0  0  0
 21 22  1  0  0  0  0
 21 27  1  0  0  0  0
 22 23  2  0  0  0  0
 22 25  1  0  0  0  0
 23 24  1  0  0  0  0
 25 26  2  0  0  0  0
 26 27  1  0  0  0  0
M  END
>  <CHROM.1>
-12.03238927,56.62869914,-175.23351549,56.48084784,-85.45221742,72.51192129
26.36135481,52.52040925,63.76702446,9.11246572,-1.13383845,1.16670593,3.14039266

>  <Name>
ligand

>  <RI>
0

>  <Rbt.Current_Directory>
/home/itssahil/PROJECTS/Mol_Feturizer/New_Systems/rnas/3GX2

>  <Rbt.Executable>
rbdock ($Id: //depot/dev/client3/rdock/2013.1/src/exe/rbdock.cxx#4 $)

>  <Rbt.Library>
libRbt.so (2013.1, Build901 2013/11/27)

>  <Rbt.Parameter_File>
/export/apps/rDock/src/rDock_2013.1_src/data/scripts/dock_solv.prm

>  <Rbt.Receptor>
prm/blind_docking_100.prm

>  <SCORE>
-10.5966

>  <SCORE.INTER>
-6.90674

>  <SCORE.INTER.CONST>
1

>  <SCORE.INTER.POLAR>
0

>  <SCORE.INTER.ROT>
7

>  <SCORE.INTER.SOLV>
11.6617

>  <SCORE.INTER.VDW>
-16.7584

>  <SCORE.INTER.norm>
-0.255805

>  <SCORE.INTRA>
-3.68985

>  <SCORE.INTRA.DIHEDRAL>
-6.48194

>  <SCORE.INTRA.DIHEDRAL.0>
13.9704

>  <SCORE.INTRA.POLAR>
0

>  <SCORE.INTRA.POLAR.0>
0

>  <SCORE.INTRA.REPUL>
0

>  <SCORE.INTRA.REPUL.0>
0

>  <SCORE.INTRA.SOLV>
0.478761

>  <SCORE.INTRA.SOLV.lig_0>
-70.9758

>  <SCORE.INTRA.VDW>
-0.68826

>  <SCORE.INTRA.VDW.0>
-2.70686

>  <SCORE.INTRA.norm>
-0.136661

>  <SCORE.RESTR>
0

>  <SCORE.RESTR.CAVITY>
0

>  <SCORE.RESTR.norm>
0

>  <SCORE.SYSTEM>
0

>  <SCORE.SYSTEM.CONST>
0

>  <SCORE.SYSTEM.DIHEDRAL>
0

>  <SCORE.SYSTEM.SOLV>
0

>  <SCORE.SYSTEM.norm>
0

>  <SCORE.heavy>
27

>  <SCORE.norm>
-0.392466

>  <RMSD>
24.343

$$$$
ligand
 OpenBabel11021811473D
libRbt.so/2013.1/901 2013/11/27
 27 29  0  0  0  0  0  0  0  0999 V2000
   52.4835   65.7328   10.8393 N   0  0  0  0  0  0  0  0  0  0  0  0
   52.4023   64.7552   11.9222 C   0  0  2  0  0  0  0  0  0  0  0  0
   52.7410   63.3252   11.4961 C   0  0  0  0  0  0  0  0  0  0  0  0
   53.5494   62.7212   12.1195 O   0  0  0  0  0  0  0  0  0  0  0  0
   51.1167   64.8414   12.7714 C   0  0  0  0  0  0  0  0  0  0  0  0
   50.7892   66.1578   13.5297 C   0  0  0  0  0  0  0  0  0  0  0  0
   50.3074   67.3409   12.6486 C   0  0  2  0  0  0  0  0  0  0  0  0
   50.7288   68.6434   13.1642 N   0  0  0  0  0  0  0  0  0  0  0  0
   48.7786   67.2667   12.3478 C   0  0  0  0  0  0  0  0  0  0  0  0
   48.3187   66.9515   10.8844 C   0  0  1  0  0  0  0  0  0  0  0  0
   48.5188   67.9556    9.8456 O   0  0  0  0  0  0  0  0  0  0  0  0
   48.8407   65.6301   10.2540 C   0  0  1  0  0  0  0  0  0  0  0  0
   48.3891   64.3937   10.8219 O   0  0  0  0  0  0  0  0  0  0  0  0
   48.7363   65.8439    8.7121 C   0  0  1  0  0  0  0  0  0  0  0  0
   47.7621   65.1122    8.0075 O   0  0  0  0  0  0  0  0  0  0  0  0
   48.7538   67.3700    8.5808 C   0  0  2  0  0  0  0  0  0  0  0  0
   51.7953   62.6106   10.7340 O   0  0  0  0  0  0  0  0  0  0  0  0
   51.5026   71.6705    6.7266 N   0  0  0  0  0  0  0  0  0  0  0  0
   50.2068   71.6516    7.2552 C   0  0  0  0  0  0  0  0  0  0  0  0
   49.6201   70.3927    7.7090 N   0  0  0  0  0  0  0  0  0  0  0  0
   50.3368   69.2292    7.6199 C   0  0  0  0  0  0  0  0  0  0  0  0
   51.6395   69.2568    7.0849 C   0  0  0  0  0  0  0  0  0  0  0  0
   52.2233   70.5117    6.6321 C   0  0  0  0  0  0  0  0  0  0  0  0
   53.5769   70.5424    6.0769 N   0  0  0  0  0  0  0  0  0  0  0  0
   52.1579   67.9108    7.1062 N   0  0  0  0  0  0  0  0  0  0  0  0
   51.1587   67.0727    7.6546 C   0  0  0  0  0  0  0  0  0  0  0  0
   50.0243   67.8707    7.9807 N   0  0  0  0  0  0  0  0  0  0  0  0
  2  1  1  6  0  0  0
  2  3  1  0  0  0  0
  2  5  1  0  0  0  0
  3  4  1  0  0  0  0
  3 17  1  0  0  0  0
  5  6  1  0  0  0  0
  7  6  1  1  0  0  0
  7  8  1  0  0  0  0
  7  9  1  0  0  0  0
 10  9  1  1  0  0  0
 10 11  1  0  0  0  0
 10 12  1  0  0  0  0
 11 16  1  0  0  0  0
 12 13  1  1  0  0  0
 12 14  1  0  0  0  0
 14 15  1  1  0  0  0
 14 16  1  0  0  0  0
 16 27  1  1  0  0  0
 18 19  2  0  0  0  0
 18 23  1  0  0  0  0
 19 20  1  0  0  0  0
 20 21  2  0  0  0  0
 21 22  1  0  0  0  0
 21 27  1  0  0  0  0
 22 23  2  0  0  0  0
 22 25  1  0  0  0  0
 23 24  1  0  0  0  0
 25 26  2  0  0  0  0
 26 27  1  0  0  0  0
M  END
>  <CHROM.1>
128.33306174,-59.80661545,73.37265235,-147.07030284,-110.73443087,-70.01307832
-62.03113451,50.59078811,67.02853749,9.71321365,-1.56064572,0.20146238,-0.70332509

>  <Name>
ligand

>  <RI>
0

>  <Rbt.Current_Directory>
/home/itssahil/PROJECTS/Mol_Feturizer/New_Systems/rnas/3GX2

>  <Rbt.Executable>
rbdock ($Id: //depot/dev/client3/rdock/2013.1/src/exe/rbdock.cxx#4 $)

>  <Rbt.Library>
libRbt.so (2013.1, Build901 2013/11/27)

>  <Rbt.Parameter_File>
/export/apps/rDock/src/rDock_2013.1_src/data/scripts/dock_solv.prm

>  <Rbt.Receptor>
prm/blind_docking_100.prm

>  <SCORE>
-1.44953

>  <SCORE.INTER>
-2.11392

>  <SCORE.INTER.CONST>
1

>  <SCORE.INTER.POLAR>
0

>  <SCORE.INTER.ROT>
7

>  <SCORE.INTER.SOLV>
8.99029

>  <SCORE.INTER.VDW>
-12.6727

>  <SCORE.INTER.norm>
-0.0782934

>  <SCORE.INTRA>
0.658088

>  <SCORE.INTRA.DIHEDRAL>
0.125688

>  <SCORE.INTRA.DIHEDRAL.0>
13.9704

>  <SCORE.INTRA.POLAR>
0

>  <SCORE.INTRA.POLAR.0>
0

>  <SCORE.INTRA.REPUL>
0

>  <SCORE.INTRA.REPUL.0>
0

>  <SCORE.INTRA.SOLV>
2.89213

>  <SCORE.INTRA.SOLV.lig_0>
-70.9758

>  <SCORE.INTRA.VDW>
-0.850822

>  <SCORE.INTRA.VDW.0>
-2.70686

>  <SCORE.INTRA.norm>
0.0243736

>  <SCORE.RESTR>
0.00630369

>  <SCORE.RESTR.CAVITY>
0.00630369

>  <SCORE.RESTR.norm>
0.00023347

>  <SCORE.SYSTEM>
0

>  <SCORE.SYSTEM.CONST>
0

>  <SCORE.SYSTEM.DIHEDRAL>
0

>  <SCORE.SYSTEM.SOLV>
0

>  <SCORE.SYSTEM.norm>
0

>  <SCORE.heavy>
27

>  <SCORE.norm>
-0.0536863

>  <RMSD>
24.619

$$$$
ligand
 OpenBabel11021811473D
libRbt.so/2013.1/901 2013/11/27
 27 29  0  0  0  0  0  0  0  0999 V2000
   51.6400   68.1862   11.7943 N   0  0  0  0  0  0  0  0  0  0  0  0
   51.6865   69.0294   10.6019 C   0  0  2  0  0  0  0  0  0  0  0  0
   52.2164   70.4417   10.8588 C   0  0  0  0  0  0  0  0  0  0  0  0
   53.3854   70.6319   10.7957 O   0  0  0  0  0  0  0  0  0  0  0  0
   50.3975   69.0155    9.7537 C   0  0  0  0  0  0  0  0  0  0  0  0
   49.8452   67.6622    9.2259 C   0  0  0  0  0  0  0  0  0  0  0  0
   50.7602   66.9047    8.2272 C   0  0  2  0  0  0  0  0  0  0  0  0
   51.1449   67.7209    7.0757 N   0  0  0  0  0  0  0  0  0  0  0  0
   50.1716   65.5172    7.8251 C   0  0  0  0  0  0  0  0  0  0  0  0
   51.0416   64.5644    6.9376 C   0  0  1  0  0  0  0  0  0  0  0  0
   52.3255   64.0958    7.4468 O   0  0  0  0  0  0  0  0  0  0  0  0
   50.3479   63.2842    6.3939 C   0  0  1  0  0  0  0  0  0  0  0  0
   49.2893   63.4498    5.4415 O   0  0  0  0  0  0  0  0  0  0  0  0
   51.5103   62.2930    6.0768 C   0  0  1  0  0  0  0  0  0  0  0  0
   51.7889   62.0108    4.7264 O   0  0  0  0  0  0  0  0  0  0  0  0
   52.6423   62.8017    6.9750 C   0  0  2  0  0  0  0  0  0  0  0  0
   51.3386   71.5299   10.6822 O   0  0  0  0  0  0  0  0  0  0  0  0
   52.3616   61.9501   12.3307 N   0  0  0  0  0  0  0  0  0  0  0  0
   51.9291   63.0782   11.6241 C   0  0  0  0  0  0  0  0  0  0  0  0
   52.0855   63.1366   10.1725 N   0  0  0  0  0  0  0  0  0  0  0  0
   52.6536   62.0878    9.5001 C   0  0  0  0  0  0  0  0  0  0  0  0
   53.0879   60.9570   10.2190 C   0  0  0  0  0  0  0  0  0  0  0  0
   52.9324   60.8997   11.6657 C   0  0  0  0  0  0  0  0  0  0  0  0
   53.3820   59.7254   12.4142 N   0  0  0  0  0  0  0  0  0  0  0  0
   53.6416   60.0159    9.2762 N   0  0  0  0  0  0  0  0  0  0  0  0
   53.5405   60.5880    7.9862 C   0  0  0  0  0  0  0  0  0  0  0  0
   52.9297   61.8699    8.1037 N   0  0  0  0  0  0  0  0  0  0  0  0
  2  1  1  1  0  0  0
  2  3  1  0  0  0  0
  2  5  1  0  0  0  0
  3  4  1  0  0  0  0
  3 17  1  0  0  0  0
  5  6  1  0  0  0  0
  7  6  1  6  0  0  0
  7  8  1  0  0  0  0
  7  9  1  0  0  0  0
 10  9  1  1  0  0  0
 10 11  1  0  0  0  0
 10 12  1  0  0  0  0
 11 16  1  0  0  0  0
 12 13  1  6  0  0  0
 12 14  1  0  0  0  0
 14 15  1  6  0  0  0
 14 16  1  0  0  0  0
 16 27  1  1  0  0  0
 18 19  2  0  0  0  0
 18 23  1  0  0  0  0
 19 20  1  0  0  0  0
 20 21  2  0  0  0  0
 21 22  1  0  0  0  0
 21 27  1  0  0  0  0
 22 23  2  0  0  0  0
 22 25  1  0  0  0  0
 23 24  1  0  0  0  0
 25 26  2  0  0  0  0
 26 27  1  0  0  0  0
M  END
>  <CHROM.1>
88.00171888,-56.10954542,-63.69033586,-54.57913215,-173.88031062,61.28077761
13.42415123,51.82945516,64.68266590,8.99715992,-1.91695407,1.20601816,-2.65000326

>  <Name>
ligand

>  <RI>
0

>  <Rbt.Current_Directory>
/home/itssahil/PROJECTS/Mol_Feturizer/New_Systems/rnas/3GX2

>  <Rbt.Executable>
rbdock ($Id: //depot/dev/client3/rdock/2013.1/src/exe/rbdock.cxx#4 $)

>  <Rbt.Library>
libRbt.so (2013.1, Build901 2013/11/27)

>  <Rbt.Parameter_File>
/export/apps/rDock/src/rDock_2013.1_src/data/scripts/dock_solv.prm

>  <Rbt.Receptor>
prm/blind_docking_100.prm

>  <SCORE>
-10.3317

>  <SCORE.INTER>
-6.91647

>  <SCORE.INTER.CONST>
1

>  <SCORE.INTER.POLAR>
0

>  <SCORE.INTER.ROT>
7

>  <SCORE.INTER.SOLV>
11.2514

>  <SCORE.INTER.VDW>
-16.6281

>  <SCORE.INTER.norm>
-0.256165

>  <SCORE.INTRA>
-3.41524

>  <SCORE.INTRA.DIHEDRAL>
-9.24313

>  <SCORE.INTRA.DIHEDRAL.0>
13.9704

>  <SCORE.INTRA.POLAR>
0

>  <SCORE.INTRA.POLAR.0>
0

>  <SCORE.INTRA.REPUL>
0

>  <SCORE.INTRA.REPUL.0>
0

>  <SCORE.INTRA.SOLV>
1.79867

>  <SCORE.INTRA.SOLV.lig_0>
-70.9758

>  <SCORE.INTRA.VDW>
0.306995

>  <SCORE.INTRA.VDW.0>
-2.70686

>  <SCORE.INTRA.norm>
-0.12649

>  <SCORE.RESTR>
0

>  <SCORE.RESTR.CAVITY>
0

>  <SCORE.RESTR.norm>
0

>  <SCORE.SYSTEM>
0

>  <SCORE.SYSTEM.CONST>
0

>  <SCORE.SYSTEM.DIHEDRAL>
0

>  <SCORE.SYSTEM.SOLV>
0

>  <SCORE.SYSTEM.norm>
0

>  <SCORE.heavy>
27

>  <SCORE.norm>
-0.382656

>  <RMSD>
24.651

$$$$
ligand
 OpenBabel11021811473D
libRbt.so/2013.1/901 2013/11/27
 27 29  0  0  0  0  0  0  0  0999 V2000
   52.4356   40.3860   22.4713 N   0  0  0  0  0  0  0  0  0  0  0  0
   52.4724   38.9289   22.3687 C   0  0  2  0  0  0  0  0  0  0  0  0
   53.7522   38.3821   21.7328 C   0  0  0  0  0  0  0  0  0  0  0  0
   54.4856   37.7298   22.3988 O   0  0  0  0  0  0  0  0  0  0  0  0
   51.1924   38.2926   21.7874 C   0  0  0  0  0  0  0  0  0  0  0  0
   51.0438   36.7457   21.7805 C   0  0  0  0  0  0  0  0  0  0  0  0
   49.8646   36.1859   20.9411 C   0  0  2  0  0  0  0  0  0  0  0  0
   48.5570   36.6037   21.4468 N   0  0  0  0  0  0  0  0  0  0  0  0
   49.9743   34.6449   20.7259 C   0  0  0  0  0  0  0  0  0  0  0  0
   49.1226   33.9860   19.5888 C   0  0  1  0  0  0  0  0  0  0  0  0
   47.7633   34.4599   19.3547 O   0  0  0  0  0  0  0  0  0  0  0  0
   49.7643   33.9302   18.1742 C   0  0  1  0  0  0  0  0  0  0  0  0
   50.9193   33.1000   17.9956 O   0  0  0  0  0  0  0  0  0  0  0  0
   48.5647   33.7898   17.1867 C   0  0  1  0  0  0  0  0  0  0  0  0
   48.3964   32.5612   16.5210 O   0  0  0  0  0  0  0  0  0  0  0  0
   47.3942   34.3601   17.9939 C   0  0  2  0  0  0  0  0  0  0  0  0
   53.7977   38.2411   20.3315 O   0  0  0  0  0  0  0  0  0  0  0  0
   47.9676   38.1528   14.1503 N   0  0  0  0  0  0  0  0  0  0  0  0
   48.6838   36.9574   14.2803 C   0  0  0  0  0  0  0  0  0  0  0  0
   48.3942   36.0478   15.3865 N   0  0  0  0  0  0  0  0  0  0  0  0
   47.4208   36.3616   16.2972 C   0  0  0  0  0  0  0  0  0  0  0  0
   46.7061   37.5676   16.1600 C   0  0  0  0  0  0  0  0  0  0  0  0
   46.9957   38.4740   15.0577 C   0  0  0  0  0  0  0  0  0  0  0  0
   46.2536   39.7269   14.9130 N   0  0  0  0  0  0  0  0  0  0  0  0
   45.7548   37.6465   17.2415 N   0  0  0  0  0  0  0  0  0  0  0  0
   45.9030   36.4824   18.0318 C   0  0  0  0  0  0  0  0  0  0  0  0
   46.9283   35.6735   17.4622 N   0  0  0  0  0  0  0  0  0  0  0  0
  2  1  1  6  0  0  0
  2  3  1  0  0  0  0
  2  5  1  0  0  0  0
  3  4  1  0  0  0  0
  3 17  1  0  0  0  0
  5  6  1  0  0  0  0
  7  6  1  1  0  0  0
  7  8  1  0  0  0  0
  7  9  1  0  0  0  0
 10  9  1  1  0  0  0
 10 11  1  0  0  0  0
 10 12  1  0  0  0  0
 11 16  1  0  0  0  0
 12 13  1  1  0  0  0
 12 14  1  0  0  0  0
 14 15  1  1  0  0  0
 14 16  1  0  0  0  0
 16 27  1  6  0  0  0
 18 19  2  0  0  0  0
 18 23  1  0  0  0  0
 19 20  1  0  0  0  0
 20 21  2  0  0  0  0
 21 22  1  0  0  0  0
 21 27  1  0  0  0  0
 22 23  2  0  0  0  0
 22 25  1  0  0  0  0
 23 24  1  0  0  0  0
 25 26  2  0  0  0  0
 26 27  1  0  0  0  0
M  END
>  <CHROM.1>
114.26068036,-172.97208811,-168.72681179,-63.57607368,-162.85207470,-38.95482247
126.02059002,49.36795361,36.46036360,18.65404791,0.08169002,-0.84283793,-0.16016896

>  <Name>
ligand

>  <RI>
0

>  <Rbt.Current_Directory>
/home/itssahil/PROJECTS/Mol_Feturizer/New_Systems/rnas/3GX2

>  <Rbt.Executable>
rbdock ($Id: //depot/dev/client3/rdock/2013.1/src/exe/rbdock.cxx#4 $)

>  <Rbt.Library>
libRbt.so (2013.1, Build901 2013/11/27)

>  <Rbt.Parameter_File>
/export/apps/rDock/src/rDock_2013.1_src/data/scripts/dock_solv.prm

>  <Rbt.Receptor>
prm/blind_docking_80.prm

>  <SCORE>
-15.0867

>  <SCORE.INTER>
-13.1638

>  <SCORE.INTER.CONST>
1

>  <SCORE.INTER.POLAR>
0

>  <SCORE.INTER.ROT>
7

>  <SCORE.INTER.SOLV>
15.7495

>  <SCORE.INTER.VDW>
-22.2923

>  <SCORE.INTER.norm>
-0.487547

>  <SCORE.INTRA>
-1.9254

>  <SCORE.INTRA.DIHEDRAL>
-5.89398

>  <SCORE.INTRA.DIHEDRAL.0>
13.9704

>  <SCORE.INTRA.POLAR>
0

>  <SCORE.INTRA.POLAR.0>
0

>  <SCORE.INTRA.REPUL>
0

>  <SCORE.INTRA.REPUL.0>
0

>  <SCORE.INTRA.SOLV>
1.2417

>  <SCORE.INTRA.SOLV.lig_0>
-70.9758

>  <SCORE.INTRA.VDW>
0.400745

>  <SCORE.INTRA.VDW.0>
-2.70686

>  <SCORE.INTRA.norm>
-0.0713111

>  <SCORE.RESTR>
0.00243691

>  <SCORE.RESTR.CAVITY>
0.00243691

>  <SCORE.RESTR.norm>
9.02558e-05

>  <SCORE.SYSTEM>
0

>  <SCORE.SYSTEM.CONST>
0

>  <SCORE.SYSTEM.DIHEDRAL>
0

>  <SCORE.SYSTEM.SOLV>
0

>  <SCORE.SYSTEM.norm>
0

>  <SCORE.heavy>
27

>  <SCORE.norm>
-0.558768

>  <RMSD>
24.676

$$$$
ligand
 OpenBabel11021811473D
libRbt.so/2013.1/901 2013/11/27
 27 29  0  0  0  0  0  0  0  0999 V2000
   51.6037   66.6475    7.6553 N   0  0  0  0  0  0  0  0  0  0  0  0
   51.7505   65.2447    8.0370 C   0  0  2  0  0  0  0  0  0  0  0  0
   51.7522   64.2748    6.8535 C   0  0  0  0  0  0  0  0  0  0  0  0
   52.7302   63.6386    6.6397 O   0  0  0  0  0  0  0  0  0  0  0  0
   50.8255   64.7907    9.1856 C   0  0  0  0  0  0  0  0  0  0  0  0
   51.1445   65.2296   10.6419 C   0  0  0  0  0  0  0  0  0  0  0  0
   52.4558   64.6597   11.2454 C   0  0  2  0  0  0  0  0  0  0  0  0
   52.5314   63.2009   11.1677 N   0  0  0  0  0  0  0  0  0  0  0  0
   52.7337   65.2120   12.6775 C   0  0  0  0  0  0  0  0  0  0  0  0
   52.9035   66.7577   12.8631 C   0  0  1  0  0  0  0  0  0  0  0  0
   53.9783   67.4439   12.1552 O   0  0  0  0  0  0  0  0  0  0  0  0
   51.6472   67.6371   12.6095 C   0  0  1  0  0  0  0  0  0  0  0  0
   50.5408   67.4992   13.5108 O   0  0  0  0  0  0  0  0  0  0  0  0
   52.2018   69.0611   12.2957 C   0  0  1  0  0  0  0  0  0  0  0  0
   52.0001   70.0747   13.2512 O   0  0  0  0  0  0  0  0  0  0  0  0
   53.6271   68.7702   11.8155 C   0  0  2  0  0  0  0  0  0  0  0  0
   50.5150   63.8057    6.3689 O   0  0  0  0  0  0  0  0  0  0  0  0
   54.0095   72.4678    7.8572 N   0  0  0  0  0  0  0  0  0  0  0  0
   53.8471   72.7013    9.2275 C   0  0  0  0  0  0  0  0  0  0  0  0
   53.7619   71.5765   10.1563 N   0  0  0  0  0  0  0  0  0  0  0  0
   53.8425   70.2919    9.6887 C   0  0  0  0  0  0  0  0  0  0  0  0
   54.0040   70.0657    8.3078 C   0  0  0  0  0  0  0  0  0  0  0  0
   54.0881   71.1872    7.3827 C   0  0  0  0  0  0  0  0  0  0  0  0
   54.2570   70.9542    5.9479 N   0  0  0  0  0  0  0  0  0  0  0  0
   54.0570   68.6401    8.0936 N   0  0  0  0  0  0  0  0  0  0  0  0
   53.9237   68.0098    9.3532 C   0  0  0  0  0  0  0  0  0  0  0  0
   53.7917   69.0157   10.3535 N   0  0  0  0  0  0  0  0  0  0  0  0
  2  1  1  6  0  0  0
  2  3  1  0  0  0  0
  2  5  1  0  0  0  0
  3  4  1  0  0  0  0
  3 17  1  0  0  0  0
  5  6  1  0  0  0  0
  7  6  1  1  0  0  0
  7  8  1  0  0  0  0
  7  9  1  0  0  0  0
 10  9  1  6  0  0  0
 10 11  1  0  0  0  0
 10 12  1  0  0  0  0
 11 16  1  0  0  0  0
 12 13  1  1  0  0  0
 12 14  1  0  0  0  0
 14 15  1  1  0  0  0
 14 16  1  0  0  0  0
 16 27  1  6  0  0  0
 18 19  2  0  0  0  0
 18 23  1  0  0  0  0
 19 20  1  0  0  0  0
 20 21  2  0  0  0  0
 21 22  1  0  0  0  0
 21 27  1  0  0  0  0
 22 23  2  0  0  0  0
 22 25  1  0  0  0  0
 23 24  1  0  0  0  0
 25 26  2  0  0  0  0
 26 27  1  0  0  0  0
M  END
>  <CHROM.1>
116.32230707,-74.57931756,-65.74692172,-53.82419691,-60.14012270,-60.30542341
-164.10643796,52.71447989,67.64931612,9.85201170,-2.84113296,1.25508359,1.25832280

>  <Name>
ligand

>  <RI>
0

>  <Rbt.Current_Directory>
/home/itssahil/PROJECTS/Mol_Feturizer/New_Systems/rnas/3GX2

>  <Rbt.Executable>
rbdock ($Id: //depot/dev/client3/rdock/2013.1/src/exe/rbdock.cxx#4 $)

>  <Rbt.Library>
libRbt.so (2013.1, Build901 2013/11/27)

>  <Rbt.Parameter_File>
/export/apps/rDock/src/rDock_2013.1_src/data/scripts/dock_solv.prm

>  <Rbt.Receptor>
prm/blind_docking_100.prm

>  <SCORE>
-8.35152

>  <SCORE.INTER>
-4.52707

>  <SCORE.INTER.CONST>
1

>  <SCORE.INTER.POLAR>
0

>  <SCORE.INTER.ROT>
7

>  <SCORE.INTER.SOLV>
12.485

>  <SCORE.INTER.VDW>
-15.4464

>  <SCORE.INTER.norm>
-0.167669

>  <SCORE.INTRA>
-3.82445

>  <SCORE.INTRA.DIHEDRAL>
-8.22879

>  <SCORE.INTRA.DIHEDRAL.0>
13.9704

>  <SCORE.INTRA.POLAR>
0

>  <SCORE.INTRA.POLAR.0>
0

>  <SCORE.INTRA.REPUL>
0

>  <SCORE.INTRA.REPUL.0>
0

>  <SCORE.INTRA.SOLV>
1.81208

>  <SCORE.INTRA.SOLV.lig_0>
-70.9758

>  <SCORE.INTRA.VDW>
-0.616091

>  <SCORE.INTRA.VDW.0>
-2.70686

>  <SCORE.INTRA.norm>
-0.141646

>  <SCORE.RESTR>
0

>  <SCORE.RESTR.CAVITY>
0

>  <SCORE.RESTR.norm>
0

>  <SCORE.SYSTEM>
0

>  <SCORE.SYSTEM.CONST>
0

>  <SCORE.SYSTEM.DIHEDRAL>
0

>  <SCORE.SYSTEM.SOLV>
0

>  <SCORE.SYSTEM.norm>
0

>  <SCORE.heavy>
27

>  <SCORE.norm>
-0.309315

>  <RMSD>
24.710

$$$$
ligand
 OpenBabel11021811473D
libRbt.so/2013.1/901 2013/11/27
 27 29  0  0  0  0  0  0  0  0999 V2000
   53.0313   68.2319   11.6727 N   0  0  0  0  0  0  0  0  0  0  0  0
   54.0949   67.5344   10.9535 C   0  0  2  0  0  0  0  0  0  0  0  0
   54.9057   66.5710   11.8227 C   0  0  0  0  0  0  0  0  0  0  0  0
   55.4204   66.9873   12.8069 O   0  0  0  0  0  0  0  0  0  0  0  0
   54.9805   68.4432   10.0755 C   0  0  0  0  0  0  0  0  0  0  0  0
   54.3254   69.2909    8.9498 C   0  0  0  0  0  0  0  0  0  0  0  0
   53.6394   68.4867    7.8134 C   0  0  2  0  0  0  0  0  0  0  0  0
   53.5108   69.2509    6.5727 N   0  0  0  0  0  0  0  0  0  0  0  0
   52.2974   67.8405    8.2766 C   0  0  0  0  0  0  0  0  0  0  0  0
   51.7730   66.5774    7.5136 C   0  0  1  0  0  0  0  0  0  0  0  0
   52.4969   65.3180    7.6439 O   0  0  0  0  0  0  0  0  0  0  0  0
   50.2827   66.1940    7.7326 C   0  0  1  0  0  0  0  0  0  0  0  0
   49.2809   67.0929    7.2391 O   0  0  0  0  0  0  0  0  0  0  0  0
   50.1930   64.6793    7.3695 C   0  0  1  0  0  0  0  0  0  0  0  0
   49.5072   64.3204    6.1941 O   0  0  0  0  0  0  0  0  0  0  0  0
   51.6357   64.2004    7.5597 C   0  0  2  0  0  0  0  0  0  0  0  0
   54.6351   65.1914   11.7268 O   0  0  0  0  0  0  0  0  0  0  0  0
   53.6288   59.5440    9.5174 N   0  0  0  0  0  0  0  0  0  0  0  0
   53.7344   60.0324    8.2101 C   0  0  0  0  0  0  0  0  0  0  0  0
   53.1310   61.3157    7.8576 N   0  0  0  0  0  0  0  0  0  0  0  0
   52.4627   62.0440    8.8053 C   0  0  0  0  0  0  0  0  0  0  0  0
   52.3595   61.5443   10.1182 C   0  0  0  0  0  0  0  0  0  0  0  0
   52.9604   60.2650   10.4686 C   0  0  0  0  0  0  0  0  0  0  0  0
   52.8551   59.7447   11.8323 N   0  0  0  0  0  0  0  0  0  0  0  0
   51.6129   62.4992   10.9003 N   0  0  0  0  0  0  0  0  0  0  0  0
   51.2651   63.5750   10.0499 C   0  0  0  0  0  0  0  0  0  0  0  0
   51.7840   63.3127    8.7491 N   0  0  0  0  0  0  0  0  0  0  0  0
  2  1  1  1  0  0  0
  2  3  1  0  0  0  0
  2  5  1  0  0  0  0
  3  4  1  0  0  0  0
  3 17  1  0  0  0  0
  5  6  1  0  0  0  0
  7  6  1  1  0  0  0
  7  8  1  0  0  0  0
  7  9  1  0  0  0  0
 10  9  1  1  0  0  0
 10 11  1  0  0  0  0
 10 12  1  0  0  0  0
 11 16  1  0  0  0  0
 12 13  1  6  0  0  0
 12 14  1  0  0  0  0
 14 15  1  6  0  0  0
 14 16  1  0  0  0  0
 16 27  1  1  0  0  0
 18 19  2  0  0  0  0
 18 23  1  0  0  0  0
 19 20  1  0  0  0  0
 20 21  2  0  0  0  0
 21 22  1  0  0  0  0
 21 27  1  0  0  0  0
 22 23  2  0  0  0  0
 22 25  1  0  0  0  0
 23 24  1  0  0  0  0
 25 26  2  0  0  0  0
 26 27  1  0  0  0  0
M  END
>  <CHROM.1>
-55.35781197,-58.34889094,-63.04921039,-157.63955825,-155.85090289,68.98506815
-104.69326545,52.65744486,64.90593526,9.19988514,-1.41225002,0.86994527,2.95745762

>  <Name>
ligand

>  <RI>
0

>  <Rbt.Current_Directory>
/home/itssahil/PROJECTS/Mol_Feturizer/New_Systems/rnas/3GX2

>  <Rbt.Executable>
rbdock ($Id: //depot/dev/client3/rdock/2013.1/src/exe/rbdock.cxx#4 $)

>  <Rbt.Library>
libRbt.so (2013.1, Build901 2013/11/27)

>  <Rbt.Parameter_File>
/export/apps/rDock/src/rDock_2013.1_src/data/scripts/dock_solv.prm

>  <Rbt.Receptor>
prm/blind_docking_100.prm

>  <SCORE>
-8.89392

>  <SCORE.INTER>
-6.6876

>  <SCORE.INTER.CONST>
1

>  <SCORE.INTER.POLAR>
0

>  <SCORE.INTER.ROT>
7

>  <SCORE.INTER.SOLV>
9.5881

>  <SCORE.INTER.VDW>
-15.9211

>  <SCORE.INTER.norm>
-0.247689

>  <SCORE.INTRA>
-2.20632

>  <SCORE.INTRA.DIHEDRAL>
-5.6076

>  <SCORE.INTRA.DIHEDRAL.0>
13.9704

>  <SCORE.INTRA.POLAR>
0

>  <SCORE.INTRA.POLAR.0>
0

>  <SCORE.INTRA.REPUL>
0

>  <SCORE.INTRA.REPUL.0>
0

>  <SCORE.INTRA.SOLV>
1.16798

>  <SCORE.INTRA.SOLV.lig_0>
-70.9758

>  <SCORE.INTRA.VDW>
0.0134964

>  <SCORE.INTRA.VDW.0>
-2.70686

>  <SCORE.INTRA.norm>
-0.0817154

>  <SCORE.RESTR>
0

>  <SCORE.RESTR.CAVITY>
0

>  <SCORE.RESTR.norm>
0

>  <SCORE.SYSTEM>
0

>  <SCORE.SYSTEM.CONST>
0

>  <SCORE.SYSTEM.DIHEDRAL>
0

>  <SCORE.SYSTEM.SOLV>
0

>  <SCORE.SYSTEM.norm>
0

>  <SCORE.heavy>
27

>  <SCORE.norm>
-0.329404

>  <RMSD>
24.750

$$$$
ligand
 OpenBabel11021811473D
libRbt.so/2013.1/901 2013/11/27
 27 29  0  0  0  0  0  0  0  0999 V2000
   54.8635   68.5027    8.2235 N   0  0  0  0  0  0  0  0  0  0  0  0
   53.6762   69.3519    8.1591 C   0  0  2  0  0  0  0  0  0  0  0  0
   53.8500   70.7164    8.8294 C   0  0  0  0  0  0  0  0  0  0  0  0
   54.4265   70.7734    9.8644 O   0  0  0  0  0  0  0  0  0  0  0  0
   52.3610   68.6495    8.5567 C   0  0  0  0  0  0  0  0  0  0  0  0
   51.9036   67.3861    7.7758 C   0  0  0  0  0  0  0  0  0  0  0  0
   50.6624   66.6522    8.3494 C   0  0  2  0  0  0  0  0  0  0  0  0
   50.8878   66.1162    9.6918 N   0  0  0  0  0  0  0  0  0  0  0  0
   50.0922   65.5941    7.3552 C   0  0  0  0  0  0  0  0  0  0  0  0
   51.0546   64.4856    6.8096 C   0  0  1  0  0  0  0  0  0  0  0  0
   52.2091   64.0916    7.6090 O   0  0  0  0  0  0  0  0  0  0  0  0
   50.4037   63.1419    6.3775 C   0  0  1  0  0  0  0  0  0  0  0  0
   49.5320   63.1561    5.2394 O   0  0  0  0  0  0  0  0  0  0  0  0
   51.5546   62.0907    6.4430 C   0  0  1  0  0  0  0  0  0  0  0  0
   52.0457   61.5712    5.2306 O   0  0  0  0  0  0  0  0  0  0  0  0
   52.5398   62.7294    7.4270 C   0  0  2  0  0  0  0  0  0  0  0  0
   53.7747   71.8723    8.0270 O   0  0  0  0  0  0  0  0  0  0  0  0
   54.5856   58.5414   10.2131 N   0  0  0  0  0  0  0  0  0  0  0  0
   54.8371   58.8805    8.8787 C   0  0  0  0  0  0  0  0  0  0  0  0
   54.1936   60.0516    8.2877 N   0  0  0  0  0  0  0  0  0  0  0  0
   53.3446   60.8208    9.0379 C   0  0  0  0  0  0  0  0  0  0  0  0
   53.0955   60.4714   10.3795 C   0  0  0  0  0  0  0  0  0  0  0  0
   53.7366   59.3037   10.9677 C   0  0  0  0  0  0  0  0  0  0  0  0
   53.4797   58.9398   12.3616 N   0  0  0  0  0  0  0  0  0  0  0  0
   52.1753   61.4378   10.9275 N   0  0  0  0  0  0  0  0  0  0  0  0
   51.8701   62.3691    9.9072 C   0  0  0  0  0  0  0  0  0  0  0  0
   52.5858   62.0053    8.7302 N   0  0  0  0  0  0  0  0  0  0  0  0
  2  1  1  1  0  0  0
  2  3  1  0  0  0  0
  2  5  1  0  0  0  0
  3  4  1  0  0  0  0
  3 17  1  0  0  0  0
  5  6  1  0  0  0  0
  7  6  1  6  0  0  0
  7  8  1  0  0  0  0
  7  9  1  0  0  0  0
 10  9  1  1  0  0  0
 10 11  1  0  0  0  0
 10 12  1  0  0  0  0
 11 16  1  0  0  0  0
 12 13  1  6  0  0  0
 12 14  1  0  0  0  0
 14 15  1  6  0  0  0
 14 16  1  0  0  0  0
 16 27  1  1  0  0  0
 18 19  2  0  0  0  0
 18 23  1  0  0  0  0
 19 20  1  0  0  0  0
 20 21  2  0  0  0  0
 21 22  1  0  0  0  0
 21 27  1  0  0  0  0
 22 23  2  0  0  0  0
 22 25  1  0  0  0  0
 23 24  1  0  0  0  0
 25 26  2  0  0  0  0
 26 27  1  0  0  0  0
M  END
>  <CHROM.1>
-41.43392485,-58.30303203,173.07543580,-62.93967159,55.07116438,26.33065017
-154.25779167,52.56807102,64.19416220,8.45390753,-1.57535337,0.88872113,3.04656349

>  <Name>
ligand

>  <RI>
0

>  <Rbt.Current_Directory>
/home/itssahil/PROJECTS/Mol_Feturizer/New_Systems/rnas/3GX2

>  <Rbt.Executable>
rbdock ($Id: //depot/dev/client3/rdock/2013.1/src/exe/rbdock.cxx#4 $)

>  <Rbt.Library>
libRbt.so (2013.1, Build901 2013/11/27)

>  <Rbt.Parameter_File>
/export/apps/rDock/src/rDock_2013.1_src/data/scripts/dock_solv.prm

>  <Rbt.Receptor>
prm/blind_docking_100.prm

>  <SCORE>
-7.99325

>  <SCORE.INTER>
-5.86616

>  <SCORE.INTER.CONST>
1

>  <SCORE.INTER.POLAR>
0

>  <SCORE.INTER.ROT>
7

>  <SCORE.INTER.SOLV>
13.3405

>  <SCORE.INTER.VDW>
-16.6243

>  <SCORE.INTER.norm>
-0.217265

>  <SCORE.INTRA>
-2.13891

>  <SCORE.INTRA.DIHEDRAL>
-6.02761

>  <SCORE.INTRA.DIHEDRAL.0>
13.9704

>  <SCORE.INTRA.POLAR>
0

>  <SCORE.INTRA.POLAR.0>
0

>  <SCORE.INTRA.REPUL>
0

>  <SCORE.INTRA.REPUL.0>
0

>  <SCORE.INTRA.SOLV>
1.51458

>  <SCORE.INTRA.SOLV.lig_0>
-70.9758

>  <SCORE.INTRA.VDW>
0.117602

>  <SCORE.INTRA.VDW.0>
-2.70686

>  <SCORE.INTRA.norm>
-0.0792189

>  <SCORE.RESTR>
0.0118219

>  <SCORE.RESTR.CAVITY>
0.0118219

>  <SCORE.RESTR.norm>
0.00043785

>  <SCORE.SYSTEM>
0

>  <SCORE.SYSTEM.CONST>
0

>  <SCORE.SYSTEM.DIHEDRAL>
0

>  <SCORE.SYSTEM.SOLV>
0

>  <SCORE.SYSTEM.norm>
0

>  <SCORE.heavy>
27

>  <SCORE.norm>
-0.296046

>  <RMSD>
25.125

$$$$
ligand
 OpenBabel11021811473D
libRbt.so/2013.1/901 2013/11/27
 27 29  0  0  0  0  0  0  0  0999 V2000
   53.3631   72.2967    9.3210 N   0  0  0  0  0  0  0  0  0  0  0  0
   52.6623   71.0293    9.5150 C   0  0  2  0  0  0  0  0  0  0  0  0
   51.2038   71.1851    9.9507 C   0  0  0  0  0  0  0  0  0  0  0  0
   50.9753   71.5955   11.0398 O   0  0  0  0  0  0  0  0  0  0  0  0
   53.4336   69.9901   10.3555 C   0  0  0  0  0  0  0  0  0  0  0  0
   54.4319   69.0286    9.6526 C   0  0  0  0  0  0  0  0  0  0  0  0
   53.8453   68.1759    8.4963 C   0  0  2  0  0  0  0  0  0  0  0  0
   53.5972   68.9552    7.2833 N   0  0  0  0  0  0  0  0  0  0  0  0
   52.6096   67.3389    8.9499 C   0  0  0  0  0  0  0  0  0  0  0  0
   51.8782   66.4495    7.8886 C   0  0  1  0  0  0  0  0  0  0  0  0
   52.6108   65.3646    7.2455 O   0  0  0  0  0  0  0  0  0  0  0  0
   50.5306   65.8067    8.3206 C   0  0  1  0  0  0  0  0  0  0  0  0
   49.4224   66.6806    8.5719 O   0  0  0  0  0  0  0  0  0  0  0  0
   50.3374   64.5849    7.3697 C   0  0  1  0  0  0  0  0  0  0  0  0
   49.3218   64.6573    6.3980 O   0  0  0  0  0  0  0  0  0  0  0  0
   51.7694   64.2760    6.9215 C   0  0  2  0  0  0  0  0  0  0  0  0
   50.2159   71.3115    8.9539 O   0  0  0  0  0  0  0  0  0  0  0  0
   52.3823   61.2734   11.4043 N   0  0  0  0  0  0  0  0  0  0  0  0
   51.7819   62.5333   11.2990 C   0  0  0  0  0  0  0  0  0  0  0  0
   51.7046   63.2006   10.0014 N   0  0  0  0  0  0  0  0  0  0  0  0
   52.2174   62.5946    8.8856 C   0  0  0  0  0  0  0  0  0  0  0  0
   52.8216   61.3274    9.0008 C   0  0  0  0  0  0  0  0  0  0  0  0
   52.8990   60.6633   10.2944 C   0  0  0  0  0  0  0  0  0  0  0  0
   53.5255   59.3464   10.4158 N   0  0  0  0  0  0  0  0  0  0  0  0
   53.2717   60.9283    7.6896 N   0  0  0  0  0  0  0  0  0  0  0  0
   52.9373   61.9637    6.7854 C   0  0  0  0  0  0  0  0  0  0  0  0
   52.2821   63.0034    7.5064 N   0  0  0  0  0  0  0  0  0  0  0  0
  2  1  1  1  0  0  0
  2  3  1  0  0  0  0
  2  5  1  0  0  0  0
  3  4  1  0  0  0  0
  3 17  1  0  0  0  0
  5  6  1  0  0  0  0
  7  6  1  1  0  0  0
  7  8  1  0  0  0  0
  7  9  1  0  0  0  0
 10  9  1  1  0  0  0
 10 11  1  0  0  0  0
 10 12  1  0  0  0  0
 11 16  1  0  0  0  0
 12 13  1  6  0  0  0
 12 14  1  0  0  0  0
 14 15  1  6  0  0  0
 14 16  1  0  0  0  0
 16 27  1  1  0  0  0
 18 19  2  0  0  0  0
 18 23  1  0  0  0  0
 19 20  1  0  0  0  0
 20 21  2  0  0  0  0
 21 22  1  0  0  0  0
 21 27  1  0  0  0  0
 22 23  2  0  0  0  0
 22 25  1  0  0  0  0
 23 24  1  0  0  0  0
 25 26  2  0  0  0  0
 26 27  1  0  0  0  0
M  END
>  <CHROM.1>
-69.46003535,-87.37646614,-56.05621579,73.72760278,178.50631107,62.07926571
74.99359770,52.10276866,65.89627767,8.85900124,-1.62210117,0.88971033,-3.05695048

>  <Name>
ligand

>  <RI>
0

>  <Rbt.Current_Directory>
/home/itssahil/PROJECTS/Mol_Feturizer/New_Systems/rnas/3GX2

>  <Rbt.Executable>
rbdock ($Id: //depot/dev/client3/rdock/2013.1/src/exe/rbdock.cxx#4 $)

>  <Rbt.Library>
libRbt.so (2013.1, Build901 2013/11/27)

>  <Rbt.Parameter_File>
/export/apps/rDock/src/rDock_2013.1_src/data/scripts/dock_solv.prm

>  <Rbt.Receptor>
prm/blind_docking_100.prm

>  <SCORE>
-11.7036

>  <SCORE.INTER>
-9.90015

>  <SCORE.INTER.CONST>
1

>  <SCORE.INTER.POLAR>
0

>  <SCORE.INTER.ROT>
7

>  <SCORE.INTER.SOLV>
16.2417

>  <SCORE.INTER.VDW>
-20.2807

>  <SCORE.INTER.norm>
-0.366672

>  <SCORE.INTRA>
-1.81424

>  <SCORE.INTRA.DIHEDRAL>
-6.37865

>  <SCORE.INTRA.DIHEDRAL.0>
13.9704

>  <SCORE.INTRA.POLAR>
0

>  <SCORE.INTRA.POLAR.0>
0

>  <SCORE.INTRA.REPUL>
0

>  <SCORE.INTRA.REPUL.0>
0

>  <SCORE.INTRA.SOLV>
2.81655

>  <SCORE.INTRA.SOLV.lig_0>
-70.9758

>  <SCORE.INTRA.VDW>
-0.0331943

>  <SCORE.INTRA.VDW.0>
-2.70686

>  <SCORE.INTRA.norm>
-0.0671942

>  <SCORE.RESTR>
0.0107542

>  <SCORE.RESTR.CAVITY>
0.0107542

>  <SCORE.RESTR.norm>
0.000398304

>  <SCORE.SYSTEM>
0

>  <SCORE.SYSTEM.CONST>
0

>  <SCORE.SYSTEM.DIHEDRAL>
0

>  <SCORE.SYSTEM.SOLV>
0

>  <SCORE.SYSTEM.norm>
0

>  <SCORE.heavy>
27

>  <SCORE.norm>
-0.433468

>  <RMSD>
25.235

$$$$
ligand
 OpenBabel11021811473D
libRbt.so/2013.1/901 2013/11/27
 27 29  0  0  0  0  0  0  0  0999 V2000
   48.7135   65.4492   11.4838 N   0  0  0  0  0  0  0  0  0  0  0  0
   49.1383   66.7388   10.9441 C   0  0  2  0  0  0  0  0  0  0  0  0
   48.7929   67.9316   11.8380 C   0  0  0  0  0  0  0  0  0  0  0  0
   49.3616   68.9578   11.6638 O   0  0  0  0  0  0  0  0  0  0  0  0
   48.7690   66.9696    9.4637 C   0  0  0  0  0  0  0  0  0  0  0  0
   49.3165   68.2233    8.7265 C   0  0  0  0  0  0  0  0  0  0  0  0
   48.7957   68.4353    7.2800 C   0  0  2  0  0  0  0  0  0  0  0  0
   49.1509   67.3378    6.3804 N   0  0  0  0  0  0  0  0  0  0  0  0
   49.1788   69.8382    6.7158 C   0  0  0  0  0  0  0  0  0  0  0  0
   50.6958   70.2093    6.6008 C   0  0  1  0  0  0  0  0  0  0  0  0
   51.4407   70.5353    7.8116 O   0  0  0  0  0  0  0  0  0  0  0  0
   51.6080   69.2059    5.8412 C   0  0  1  0  0  0  0  0  0  0  0  0
   51.3891   69.0351    4.4347 O   0  0  0  0  0  0  0  0  0  0  0  0
   53.0515   69.4935    6.3585 C   0  0  1  0  0  0  0  0  0  0  0  0
   53.9641   70.0951    5.4719 O   0  0  0  0  0  0  0  0  0  0  0  0
   52.7979   70.1517    7.7184 C   0  0  2  0  0  0  0  0  0  0  0  0
   47.5378   67.9486   12.4785 O   0  0  0  0  0  0  0  0  0  0  0  0
   52.4295   69.2000   13.0519 N   0  0  0  0  0  0  0  0  0  0  0  0
   51.8427   70.2465   12.3312 C   0  0  0  0  0  0  0  0  0  0  0  0
   52.0510   70.3483   10.8886 N   0  0  0  0  0  0  0  0  0  0  0  0
   52.8189   69.4197   10.2382 C   0  0  0  0  0  0  0  0  0  0  0  0
   53.4074   68.3707   10.9713 C   0  0  0  0  0  0  0  0  0  0  0  0
   53.2000   68.2703   12.4091 C   0  0  0  0  0  0  0  0  0  0  0  0
   53.8098   67.1807   13.1722 N   0  0  0  0  0  0  0  0  0  0  0  0
   54.1548   67.5491   10.0507 N   0  0  0  0  0  0  0  0  0  0  0  0
   54.0148   68.1112    8.7600 C   0  0  0  0  0  0  0  0  0  0  0  0
   53.1897   69.2689    8.8550 N   0  0  0  0  0  0  0  0  0  0  0  0
  2  1  1  1  0  0  0
  2  3  1  0  0  0  0
  2  5  1  0  0  0  0
  3  4  1  0  0  0  0
  3 17  1  0  0  0  0
  5  6  1  0  0  0  0
  7  6  1  1  0  0  0
  7  8  1  0  0  0  0
  7  9  1  0  0  0  0
 10  9  1  1  0  0  0
 10 11  1  0  0  0  0
 10 12  1  0  0  0  0
 11 16  1  0  0  0  0
 12 13  1  6  0  0  0
 12 14  1  0  0  0  0
 14 15  1  6  0  0  0
 14 16  1  0  0  0  0
 16 27  1  1  0  0  0
 18 19  2  0  0  0  0
 18 23  1  0  0  0  0
 19 20  1  0  0  0  0
 20 21  2  0  0  0  0
 21 22  1  0  0  0  0
 21 27  1  0  0  0  0
 22 23  2  0  0  0  0
 22 25  1  0  0  0  0
 23 24  1  0  0  0  0
 25 26  2  0  0  0  0
 26 27  1  0  0  0  0
M  END
>  <CHROM.1>
161.97503929,-172.50111918,-174.98959446,-61.42284887,60.17954470,-74.40926823
-41.46796501,51.23051051,68.69384463,9.28516292,1.78043193,0.27111599,1.76957120

>  <Name>
ligand

>  <RI>
0

>  <Rbt.Current_Directory>
/home/itssahil/PROJECTS/Mol_Feturizer/New_Systems/rnas/3GX2

>  <Rbt.Executable>
rbdock ($Id: //depot/dev/client3/rdock/2013.1/src/exe/rbdock.cxx#4 $)

>  <Rbt.Library>
libRbt.so (2013.1, Build901 2013/11/27)

>  <Rbt.Parameter_File>
/export/apps/rDock/src/rDock_2013.1_src/data/scripts/dock_solv.prm

>  <Rbt.Receptor>
prm/blind_docking_100.prm

>  <SCORE>
-11.5688

>  <SCORE.INTER>
-7.73136

>  <SCORE.INTER.CONST>
1

>  <SCORE.INTER.POLAR>
0

>  <SCORE.INTER.ROT>
7

>  <SCORE.INTER.SOLV>
6.53403

>  <SCORE.INTER.VDW>
-15.5989

>  <SCORE.INTER.norm>
-0.286347

>  <SCORE.INTRA>
-3.83742

>  <SCORE.INTRA.DIHEDRAL>
-8.23761

>  <SCORE.INTRA.DIHEDRAL.0>
13.9704

>  <SCORE.INTRA.POLAR>
0

>  <SCORE.INTRA.POLAR.0>
0

>  <SCORE.INTRA.REPUL>
0

>  <SCORE.INTRA.REPUL.0>
0

>  <SCORE.INTRA.SOLV>
2.45707

>  <SCORE.INTRA.SOLV.lig_0>
-70.9758

>  <SCORE.INTRA.VDW>
-0.947146

>  <SCORE.INTRA.VDW.0>
-2.70686

>  <SCORE.INTRA.norm>
-0.142127

>  <SCORE.RESTR>
0

>  <SCORE.RESTR.CAVITY>
0

>  <SCORE.RESTR.norm>
0

>  <SCORE.SYSTEM>
0

>  <SCORE.SYSTEM.CONST>
0

>  <SCORE.SYSTEM.DIHEDRAL>
0

>  <SCORE.SYSTEM.SOLV>
0

>  <SCORE.SYSTEM.norm>
0

>  <SCORE.heavy>
27

>  <SCORE.norm>
-0.428473

>  <RMSD>
25.705

$$$$
ligand
 OpenBabel11021811473D
libRbt.so/2013.1/901 2013/11/27
 27 29  0  0  0  0  0  0  0  0999 V2000
   48.5779   67.6791    9.7893 N   0  0  0  0  0  0  0  0  0  0  0  0
   49.0465   67.8896   11.1572 C   0  0  2  0  0  0  0  0  0  0  0  0
   47.9460   67.7842   12.2150 C   0  0  0  0  0  0  0  0  0  0  0  0
   46.9964   68.4886   12.1214 O   0  0  0  0  0  0  0  0  0  0  0  0
   49.9451   69.1298   11.3454 C   0  0  0  0  0  0  0  0  0  0  0  0
   51.3831   69.1276   10.7560 C   0  0  0  0  0  0  0  0  0  0  0  0
   52.1967   70.4334   10.9597 C   0  0  2  0  0  0  0  0  0  0  0  0
   51.6411   71.5707   10.2264 N   0  0  0  0  0  0  0  0  0  0  0  0
   53.7208   70.2238   10.7019 C   0  0  0  0  0  0  0  0  0  0  0  0
   54.1645   69.5061    9.3827 C   0  0  1  0  0  0  0  0  0  0  0  0
   53.7483   68.1277    9.1500 O   0  0  0  0  0  0  0  0  0  0  0  0
   53.8528   70.2374    8.0470 C   0  0  1  0  0  0  0  0  0  0  0  0
   54.5363   71.4697    7.7835 O   0  0  0  0  0  0  0  0  0  0  0  0
   53.8515   69.1188    6.9594 C   0  0  1  0  0  0  0  0  0  0  0  0
   54.9064   69.1009    6.0279 O   0  0  0  0  0  0  0  0  0  0  0  0
   53.5637   67.8547    7.7755 C   0  0  2  0  0  0  0  0  0  0  0  0
   47.8372   66.5886   12.9529 O   0  0  0  0  0  0  0  0  0  0  0  0
   50.5758   63.4488    6.7044 N   0  0  0  0  0  0  0  0  0  0  0  0
   51.9602   63.5116    6.8999 C   0  0  0  0  0  0  0  0  0  0  0  0
   52.6019   64.7940    7.1804 N   0  0  0  0  0  0  0  0  0  0  0  0
   51.8506   65.9365    7.2544 C   0  0  0  0  0  0  0  0  0  0  0  0
   50.4581   65.8647    7.0545 C   0  0  0  0  0  0  0  0  0  0  0  0
   49.8194   64.5864    6.7742 C   0  0  0  0  0  0  0  0  0  0  0  0
   48.3728   64.5096    6.5672 N   0  0  0  0  0  0  0  0  0  0  0  0
   49.9205   67.1969    7.1848 N   0  0  0  0  0  0  0  0  0  0  0  0
   50.9978   68.0713    7.4616 C   0  0  0  0  0  0  0  0  0  0  0  0
   52.2008   67.3095    7.5106 N   0  0  0  0  0  0  0  0  0  0  0  0
  2  1  1  6  0  0  0
  2  3  1  0  0  0  0
  2  5  1  0  0  0  0
  3  4  1  0  0  0  0
  3 17  1  0  0  0  0
  5  6  1  0  0  0  0
  7  6  1  6  0  0  0
  7  8  1  0  0  0  0
  7  9  1  0  0  0  0
 10  9  1  1  0  0  0
 10 11  1  0  0  0  0
 10 12  1  0  0  0  0
 11 16  1  0  0  0  0
 12 13  1  6  0  0  0
 12 14  1  0  0  0  0
 14 15  1  1  0  0  0
 14 16  1  0  0  0  0
 16 27  1  1  0  0  0
 18 19  2  0  0  0  0
 18 23  1  0  0  0  0
 19 20  1  0  0  0  0
 20 21  2  0  0  0  0
 21 22  1  0  0  0  0
 21 27  1  0  0  0  0
 22 23  2  0  0  0  0
 22 25  1  0  0  0  0
 23 24  1  0  0  0  0
 25 26  2  0  0  0  0
 26 27  1  0  0  0  0
M  END
>  <CHROM.1>
-56.65826161,-70.57286135,178.29724488,-66.46625889,49.53378093,-62.19985222
-103.25574574,51.36045295,67.82407884,8.86790505,3.04146447,-0.58701336,-2.42696786

>  <Name>
ligand

>  <RI>
0

>  <Rbt.Current_Directory>
/home/itssahil/PROJECTS/Mol_Feturizer/New_Systems/rnas/3GX2

>  <Rbt.Executable>
rbdock ($Id: //depot/dev/client3/rdock/2013.1/src/exe/rbdock.cxx#4 $)

>  <Rbt.Library>
libRbt.so (2013.1, Build901 2013/11/27)

>  <Rbt.Parameter_File>
/export/apps/rDock/src/rDock_2013.1_src/data/scripts/dock_solv.prm

>  <Rbt.Receptor>
prm/blind_docking_100.prm

>  <SCORE>
-15.9258

>  <SCORE.INTER>
-12.161

>  <SCORE.INTER.CONST>
1

>  <SCORE.INTER.POLAR>
0

>  <SCORE.INTER.ROT>
7

>  <SCORE.INTER.SOLV>
16.4947

>  <SCORE.INTER.VDW>
-21.8722

>  <SCORE.INTER.norm>
-0.450407

>  <SCORE.INTRA>
-3.76676

>  <SCORE.INTRA.DIHEDRAL>
-8.49428

>  <SCORE.INTRA.DIHEDRAL.0>
13.9704

>  <SCORE.INTRA.POLAR>
0

>  <SCORE.INTRA.POLAR.0>
0

>  <SCORE.INTRA.REPUL>
0

>  <SCORE.INTRA.REPUL.0>
0

>  <SCORE.INTRA.SOLV>
2.75354

>  <SCORE.INTRA.SOLV.lig_0>
-70.9758

>  <SCORE.INTRA.VDW>
-0.896393

>  <SCORE.INTRA.VDW.0>
-2.70686

>  <SCORE.INTRA.norm>
-0.13951

>  <SCORE.RESTR>
0.00189452

>  <SCORE.RESTR.CAVITY>
0.00189452

>  <SCORE.RESTR.norm>
7.01675e-05

>  <SCORE.SYSTEM>
0

>  <SCORE.SYSTEM.CONST>
0

>  <SCORE.SYSTEM.DIHEDRAL>
0

>  <SCORE.SYSTEM.SOLV>
0

>  <SCORE.SYSTEM.norm>
0

>  <SCORE.heavy>
27

>  <SCORE.norm>
-0.589846

>  <RMSD>
25.926

$$$$
ligand
 OpenBabel11021811473D
libRbt.so/2013.1/901 2013/11/27
 27 29  0  0  0  0  0  0  0  0999 V2000
   41.8257   28.7232   11.8630 N   0  0  0  0  0  0  0  0  0  0  0  0
   41.2743   28.6925   10.5102 C   0  0  2  0  0  0  0  0  0  0  0  0
   42.0306   29.5694    9.5101 C   0  0  0  0  0  0  0  0  0  0  0  0
   42.5084   29.0589    8.5520 O   0  0  0  0  0  0  0  0  0  0  0  0
   39.7441   28.8767   10.4351 C   0  0  0  0  0  0  0  0  0  0  0  0
   38.8234   27.9842   11.3131 C   0  0  0  0  0  0  0  0  0  0  0  0
   38.8781   26.4621   11.0154 C   0  0  2  0  0  0  0  0  0  0  0  0
   37.6626   25.7580   11.4241 N   0  0  0  0  0  0  0  0  0  0  0  0
   40.1815   25.8016   11.5615 C   0  0  0  0  0  0  0  0  0  0  0  0
   40.5284   25.9745   13.0788 C   0  0  1  0  0  0  0  0  0  0  0  0
   40.6829   27.3188   13.6230 O   0  0  0  0  0  0  0  0  0  0  0  0
   39.6067   25.2462   14.0967 C   0  0  1  0  0  0  0  0  0  0  0  0
   39.6182   23.8127   14.1034 O   0  0  0  0  0  0  0  0  0  0  0  0
   39.7936   26.0162   15.4407 C   0  0  1  0  0  0  0  0  0  0  0  0
   40.4797   25.3678   16.4845 O   0  0  0  0  0  0  0  0  0  0  0  0
   40.2824   27.3919   14.9766 C   0  0  2  0  0  0  0  0  0  0  0  0
   41.7422   30.9483    9.4748 O   0  0  0  0  0  0  0  0  0  0  0  0
   38.4318   32.2589   13.4355 N   0  0  0  0  0  0  0  0  0  0  0  0
   39.5356   31.5667   12.9241 C   0  0  0  0  0  0  0  0  0  0  0  0
   39.8914   30.2563   13.4637 N   0  0  0  0  0  0  0  0  0  0  0  0
   39.1453   29.7017   14.4692 C   0  0  0  0  0  0  0  0  0  0  0  0
   38.0372   30.4059   14.9794 C   0  0  0  0  0  0  0  0  0  0  0  0
   37.6836   31.7122   14.4417 C   0  0  0  0  0  0  0  0  0  0  0  0
   36.5322   32.4448   14.9699 N   0  0  0  0  0  0  0  0  0  0  0  0
   37.4398   29.6030   16.0183 N   0  0  0  0  0  0  0  0  0  0  0  0
   38.1963   28.4129   16.1321 C   0  0  0  0  0  0  0  0  0  0  0  0
   39.2554   28.4544   15.1800 N   0  0  0  0  0  0  0  0  0  0  0  0
  2  1  1  1  0  0  0
  2  3  1  0  0  0  0
  2  5  1  0  0  0  0
  3  4  1  0  0  0  0
  3 17  1  0  0  0  0
  5  6  1  0  0  0  0
  7  6  1  1  0  0  0
  7  8  1  0  0  0  0
  7  9  1  0  0  0  0
 10  9  1  6  0  0  0
 10 11  1  0  0  0  0
 10 12  1  0  0  0  0
 11 16  1  0  0  0  0
 12 13  1  1  0  0  0
 12 14  1  0  0  0  0
 14 15  1  1  0  0  0
 14 16  1  0  0  0  0
 16 27  1  6  0  0  0
 18 19  2  0  0  0  0
 18 23  1  0  0  0  0
 19 20  1  0  0  0  0
 20 21  2  0  0  0  0
 21 22  1  0  0  0  0
 21 27  1  0  0  0  0
 22 23  2  0  0  0  0
 22 25  1  0  0  0  0
 23 24  1  0  0  0  0
 25 26  2  0  0  0  0
 26 27  1  0  0  0  0
M  END
>  <CHROM.1>
120.74308657,-51.55682466,-63.01431823,-155.90241745,55.00714967,-58.28123430
-32.89137878,39.67601615,28.38130207,13.04190560,-0.66488979,-1.05917051
2.74042867

>  <Name>
ligand

>  <RI>
0

>  <Rbt.Current_Directory>
/home/itssahil/PROJECTS/Mol_Feturizer/New_Systems/rnas/3GX2

>  <Rbt.Executable>
rbdock ($Id: //depot/dev/client3/rdock/2013.1/src/exe/rbdock.cxx#4 $)

>  <Rbt.Library>
libRbt.so (2013.1, Build901 2013/11/27)

>  <Rbt.Parameter_File>
/export/apps/rDock/src/rDock_2013.1_src/data/scripts/dock_solv.prm

>  <Rbt.Receptor>
prm/blind_docking_60.prm

>  <SCORE>
12.9063

>  <SCORE.INTER>
4.12525

>  <SCORE.INTER.CONST>
1

>  <SCORE.INTER.POLAR>
0

>  <SCORE.INTER.ROT>
7

>  <SCORE.INTER.SOLV>
12.5994

>  <SCORE.INTER.VDW>
-9.71631

>  <SCORE.INTER.norm>
0.152787

>  <SCORE.INTRA>
-2.02172

>  <SCORE.INTRA.DIHEDRAL>
-7.0653

>  <SCORE.INTRA.DIHEDRAL.0>
13.9704

>  <SCORE.INTRA.POLAR>
0

>  <SCORE.INTRA.POLAR.0>
0

>  <SCORE.INTRA.REPUL>
0

>  <SCORE.INTRA.REPUL.0>
0

>  <SCORE.INTRA.SOLV>
5.89263

>  <SCORE.INTRA.SOLV.lig_0>
-70.9758

>  <SCORE.INTRA.VDW>
-1.43538

>  <SCORE.INTRA.VDW.0>
-2.70686

>  <SCORE.INTRA.norm>
-0.0748784

>  <SCORE.RESTR>
10.8027

>  <SCORE.RESTR.CAVITY>
10.8027

>  <SCORE.RESTR.norm>
0.400101

>  <SCORE.SYSTEM>
0

>  <SCORE.SYSTEM.CONST>
0

>  <SCORE.SYSTEM.DIHEDRAL>
0

>  <SCORE.SYSTEM.SOLV>
0

>  <SCORE.SYSTEM.norm>
0

>  <SCORE.heavy>
27

>  <SCORE.norm>
0.47801

>  <RMSD>
34.841

$$$$
ligand
 OpenBabel11021811473D
libRbt.so/2013.1/901 2013/11/27
 27 29  0  0  0  0  0  0  0  0999 V2000
   39.4832   25.4814   17.7451 N   0  0  0  0  0  0  0  0  0  0  0  0
   39.3111   25.1256   16.3384 C   0  0  2  0  0  0  0  0  0  0  0  0
   39.7002   23.6828   16.0095 C   0  0  0  0  0  0  0  0  0  0  0  0
   40.8461   23.3789   16.0474 O   0  0  0  0  0  0  0  0  0  0  0  0
   39.8936   26.1482   15.3405 C   0  0  0  0  0  0  0  0  0  0  0  0
   39.6766   25.9368   13.8162 C   0  0  0  0  0  0  0  0  0  0  0  0
   40.7372   26.5867   12.8882 C   0  0  2  0  0  0  0  0  0  0  0  0
   41.1069   27.9391   13.3057 N   0  0  0  0  0  0  0  0  0  0  0  0
   40.3362   26.4984   11.3833 C   0  0  0  0  0  0  0  0  0  0  0  0
   40.1530   27.8294   10.5788 C   0  0  1  0  0  0  0  0  0  0  0  0
   38.9612   28.6385   10.8070 O   0  0  0  0  0  0  0  0  0  0  0  0
   41.3281   28.8455   10.6264 C   0  0  1  0  0  0  0  0  0  0  0  0
   42.5654   28.4672   10.0091 O   0  0  0  0  0  0  0  0  0  0  0  0
   40.6903   30.2247   10.2728 C   0  0  1  0  0  0  0  0  0  0  0  0
   41.0096   30.8017    9.0294 O   0  0  0  0  0  0  0  0  0  0  0  0
   39.2163   30.0181   10.6356 C   0  0  2  0  0  0  0  0  0  0  0  0
   38.7237   22.6764   16.1483 O   0  0  0  0  0  0  0  0  0  0  0  0
   38.0905   29.8778   15.9460 N   0  0  0  0  0  0  0  0  0  0  0  0
   38.4581   28.8056   15.1251 C   0  0  0  0  0  0  0  0  0  0  0  0
   38.7255   29.0289   13.7060 N   0  0  0  0  0  0  0  0  0  0  0  0
   38.6188   30.2872   13.1765 C   0  0  0  0  0  0  0  0  0  0  0  0
   38.2464   31.3604   14.0094 C   0  0  0  0  0  0  0  0  0  0  0  0
   37.9793   31.1371   15.4233 C   0  0  0  0  0  0  0  0  0  0  0  0
   37.5933   32.2509   16.2903 N   0  0  0  0  0  0  0  0  0  0  0  0
   38.2092   32.5566   13.2039 N   0  0  0  0  0  0  0  0  0  0  0  0
   38.5587   32.1966   11.8811 C   0  0  0  0  0  0  0  0  0  0  0  0
   38.8179   30.7960   11.8443 N   0  0  0  0  0  0  0  0  0  0  0  0
  2  1  1  1  0  0  0
  2  3  1  0  0  0  0
  2  5  1  0  0  0  0
  3  4  1  0  0  0  0
  3 17  1  0  0  0  0
  5  6  1  0  0  0  0
  7  6  1  1  0  0  0
  7  8  1  0  0  0  0
  7  9  1  0  0  0  0
 10  9  1  1  0  0  0
 10 11  1  0  0  0  0
 10 12  1  0  0  0  0
 11 16  1  0  0  0  0
 12 13  1  6  0  0  0
 12 14  1  0  0  0  0
 14 15  1  6  0  0  0
 14 16  1  0  0  0  0
 16 27  1  1  0  0  0
 18 19  2  0  0  0  0
 18 23  1  0  0  0  0
 19 20  1  0  0  0  0
 20 21  2  0  0  0  0
 21 22  1  0  0  0  0
 21 27  1  0  0  0  0
 22 23  2  0  0  0  0
 22 25  1  0  0  0  0
 23 24  1  0  0  0  0
 25 26  2  0  0  0  0
 26 27  1  0  0  0  0
M  END
>  <CHROM.1>
-69.73410397,-175.30264827,-154.63451403,-42.68723087,119.68254518,-74.52186633
19.68116487,39.56300922,28.30197215,13.36849637,1.55019271,-1.06174716,2.49399801

>  <Name>
ligand

>  <RI>
0

>  <Rbt.Current_Directory>
/home/itssahil/PROJECTS/Mol_Feturizer/New_Systems/rnas/3GX2

>  <Rbt.Executable>
rbdock ($Id: //depot/dev/client3/rdock/2013.1/src/exe/rbdock.cxx#4 $)

>  <Rbt.Library>
libRbt.so (2013.1, Build901 2013/11/27)

>  <Rbt.Parameter_File>
/export/apps/rDock/src/rDock_2013.1_src/data/scripts/dock_solv.prm

>  <Rbt.Receptor>
prm/blind_docking_60.prm

>  <SCORE>
18.2322

>  <SCORE.INTER>
6.43052

>  <SCORE.INTER.CONST>
1

>  <SCORE.INTER.POLAR>
0

>  <SCORE.INTER.ROT>
7

>  <SCORE.INTER.SOLV>
17.0252

>  <SCORE.INTER.VDW>
-9.65471

>  <SCORE.INTER.norm>
0.238167

>  <SCORE.INTRA>
2.17734

>  <SCORE.INTRA.DIHEDRAL>
0.220667

>  <SCORE.INTRA.DIHEDRAL.0>
13.9704

>  <SCORE.INTRA.POLAR>
0

>  <SCORE.INTRA.POLAR.0>
0

>  <SCORE.INTRA.REPUL>
0

>  <SCORE.INTRA.REPUL.0>
0

>  <SCORE.INTRA.SOLV>
4.8988

>  <SCORE.INTRA.SOLV.lig_0>
-70.9758

>  <SCORE.INTRA.VDW>
-0.382392

>  <SCORE.INTRA.VDW.0>
-2.70686

>  <SCORE.INTRA.norm>
0.0806423

>  <SCORE.RESTR>
9.62438

>  <SCORE.RESTR.CAVITY>
9.62438

>  <SCORE.RESTR.norm>
0.356458

>  <SCORE.SYSTEM>
0

>  <SCORE.SYSTEM.CONST>
0

>  <SCORE.SYSTEM.DIHEDRAL>
0

>  <SCORE.SYSTEM.SOLV>
0

>  <SCORE.SYSTEM.norm>
0

>  <SCORE.heavy>
27

>  <SCORE.norm>
0.675268

>  <RMSD>
35.094

$$$$
ligand
 OpenBabel11021811473D
libRbt.so/2013.1/901 2013/11/27
 27 29  0  0  0  0  0  0  0  0999 V2000
   37.6074   26.1527   16.2043 N   0  0  0  0  0  0  0  0  0  0  0  0
   38.6880   25.5319   16.9672 C   0  0  2  0  0  0  0  0  0  0  0  0
   39.9997   26.3193   16.9416 C   0  0  0  0  0  0  0  0  0  0  0  0
   40.1927   27.0760   16.0488 O   0  0  0  0  0  0  0  0  0  0  0  0
   38.8848   24.0259   16.6946 C   0  0  0  0  0  0  0  0  0  0  0  0
   40.0366   23.5633   15.7594 C   0  0  0  0  0  0  0  0  0  0  0  0
   39.8308   23.8449   14.2472 C   0  0  2  0  0  0  0  0  0  0  0  0
   40.9875   23.4673   13.4351 N   0  0  0  0  0  0  0  0  0  0  0  0
   39.3448   25.3029   13.9804 C   0  0  0  0  0  0  0  0  0  0  0  0
   40.0462   26.1301   12.8507 C   0  0  1  0  0  0  0  0  0  0  0  0
   39.2638   27.0970   12.0889 O   0  0  0  0  0  0  0  0  0  0  0  0
   41.3389   26.8986   13.2433 C   0  0  1  0  0  0  0  0  0  0  0  0
   42.4930   26.1275   13.6019 O   0  0  0  0  0  0  0  0  0  0  0  0
   41.4796   28.0316   12.1800 C   0  0  1  0  0  0  0  0  0  0  0  0
   42.5227   27.9310   11.2405 O   0  0  0  0  0  0  0  0  0  0  0  0
   40.0432   28.2012   11.6752 C   0  0  2  0  0  0  0  0  0  0  0  0
   40.6951   26.5038   18.1533 O   0  0  0  0  0  0  0  0  0  0  0  0
   37.6844   30.9340   15.7317 N   0  0  0  0  0  0  0  0  0  0  0  0
   38.1451   29.6125   15.7502 C   0  0  0  0  0  0  0  0  0  0  0  0
   38.7586   29.0349   14.5564 N   0  0  0  0  0  0  0  0  0  0  0  0
   38.8857   29.7851   13.4179 C   0  0  0  0  0  0  0  0  0  0  0  0
   38.4177   31.1137   13.4073 C   0  0  0  0  0  0  0  0  0  0  0  0
   37.8058   31.6884   14.5971 C   0  0  0  0  0  0  0  0  0  0  0  0
   37.3198   33.0687   14.5883 N   0  0  0  0  0  0  0  0  0  0  0  0
   38.6723   31.6647   12.0986 N   0  0  0  0  0  0  0  0  0  0  0  0
   39.2937   30.6593   11.3211 C   0  0  0  0  0  0  0  0  0  0  0  0
   39.4363   29.4888   12.1208 N   0  0  0  0  0  0  0  0  0  0  0  0
  2  1  1  6  0  0  0
  2  3  1  0  0  0  0
  2  5  1  0  0  0  0
  3  4  1  0  0  0  0
  3 17  1  0  0  0  0
  5  6  1  0  0  0  0
  7  6  1  1  0  0  0
  7  8  1  0  0  0  0
  7  9  1  0  0  0  0
 10  9  1  1  0  0  0
 10 11  1  0  0  0  0
 10 12  1  0  0  0  0
 11 16  1  0  0  0  0
 12 13  1  6  0  0  0
 12 14  1  0  0  0  0
 14 15  1  6  0  0  0
 14 16  1  0  0  0  0
 16 27  1  1  0  0  0
 18 19  2  0  0  0  0
 18 23  1  0  0  0  0
 19 20  1  0  0  0  0
 20 21  2  0  0  0  0
 21 22  1  0  0  0  0
 21 27  1  0  0  0  0
 22 23  2  0  0  0  0
 22 25  1  0  0  0  0
 23 24  1  0  0  0  0
 25 26  2  0  0  0  0
 26 27  1  0  0  0  0
M  END
>  <CHROM.1>
-22.73533853,101.33153446,-72.56030862,176.13133194,133.40839676,146.99245144
44.33124457,39.60649041,27.67697300,14.19904793,1.12704966,-0.99959733,2.45267661

>  <Name>
ligand

>  <RI>
0

>  <Rbt.Current_Directory>
/home/itssahil/PROJECTS/Mol_Feturizer/New_Systems/rnas/3GX2

>  <Rbt.Executable>
rbdock ($Id: //depot/dev/client3/rdock/2013.1/src/exe/rbdock.cxx#4 $)

>  <Rbt.Library>
libRbt.so (2013.1, Build901 2013/11/27)

>  <Rbt.Parameter_File>
/export/apps/rDock/src/rDock_2013.1_src/data/scripts/dock_solv.prm

>  <Rbt.Receptor>
prm/blind_docking_60.prm

>  <SCORE>
23.5937

>  <SCORE.INTER>
7.81645

>  <SCORE.INTER.CONST>
1

>  <SCORE.INTER.POLAR>
0

>  <SCORE.INTER.ROT>
7

>  <SCORE.INTER.SOLV>
15.3728

>  <SCORE.INTER.VDW>
-8.17996

>  <SCORE.INTER.norm>
0.289498

>  <SCORE.INTRA>
4.49275

>  <SCORE.INTRA.DIHEDRAL>
2.95549

>  <SCORE.INTRA.DIHEDRAL.0>
13.9704

>  <SCORE.INTRA.POLAR>
0

>  <SCORE.INTRA.POLAR.0>
0

>  <SCORE.INTRA.REPUL>
0

>  <SCORE.INTRA.REPUL.0>
0

>  <SCORE.INTRA.SOLV>
5.7537

>  <SCORE.INTRA.SOLV.lig_0>
-70.9758

>  <SCORE.INTRA.VDW>
0.138157

>  <SCORE.INTRA.VDW.0>
-2.70686

>  <SCORE.INTRA.norm>
0.166398

>  <SCORE.RESTR>
11.2845

>  <SCORE.RESTR.CAVITY>
11.2845

>  <SCORE.RESTR.norm>
0.417946

>  <SCORE.SYSTEM>
0

>  <SCORE.SYSTEM.CONST>
0

>  <SCORE.SYSTEM.DIHEDRAL>
0

>  <SCORE.SYSTEM.SOLV>
0

>  <SCORE.SYSTEM.norm>
0

>  <SCORE.heavy>
27

>  <SCORE.norm>
0.873842

>  <RMSD>
35.096

$$$$
ligand
 OpenBabel11021811473D
libRbt.so/2013.1/901 2013/11/27
 27 29  0  0  0  0  0  0  0  0999 V2000
   38.0789   25.4495   15.1871 N   0  0  0  0  0  0  0  0  0  0  0  0
   38.9961   24.3315   15.3964 C   0  0  2  0  0  0  0  0  0  0  0  0
   39.7950   24.4176   16.6986 C   0  0  0  0  0  0  0  0  0  0  0  0
   40.8571   23.8923   16.7512 O   0  0  0  0  0  0  0  0  0  0  0  0
   39.8720   23.9811   14.1753 C   0  0  0  0  0  0  0  0  0  0  0  0
   41.1667   24.7971   13.9048 C   0  0  0  0  0  0  0  0  0  0  0  0
   40.9568   26.2195   13.3207 C   0  0  2  0  0  0  0  0  0  0  0  0
   40.3451   27.1428   14.2763 N   0  0  0  0  0  0  0  0  0  0  0  0
   40.2242   26.1886   11.9439 C   0  0  0  0  0  0  0  0  0  0  0  0
   40.0958   27.5234   11.1350 C   0  0  1  0  0  0  0  0  0  0  0  0
   38.9130   28.3559   11.3222 O   0  0  0  0  0  0  0  0  0  0  0  0
   41.2885   28.5160   11.2250 C   0  0  1  0  0  0  0  0  0  0  0  0
   42.5389   28.1134   10.6510 O   0  0  0  0  0  0  0  0  0  0  0  0
   40.6909   29.9077   10.8507 C   0  0  1  0  0  0  0  0  0  0  0  0
   41.0651   30.4788    9.6200 O   0  0  0  0  0  0  0  0  0  0  0  0
   39.2014   29.7303   11.1614 C   0  0  2  0  0  0  0  0  0  0  0  0
   39.5102   25.4695   17.5920 O   0  0  0  0  0  0  0  0  0  0  0  0
   37.6246   29.5795   16.3555 N   0  0  0  0  0  0  0  0  0  0  0  0
   37.9593   28.4957   15.5356 C   0  0  0  0  0  0  0  0  0  0  0  0
   38.3646   28.7241   14.1504 N   0  0  0  0  0  0  0  0  0  0  0  0
   38.4196   29.9983   13.6520 C   0  0  0  0  0  0  0  0  0  0  0  0
   38.0793   31.0832   14.4833 C   0  0  0  0  0  0  0  0  0  0  0  0
   37.6747   30.8548   15.8634 C   0  0  0  0  0  0  0  0  0  0  0  0
   37.3217   31.9807   16.7290 N   0  0  0  0  0  0  0  0  0  0  0  0
   38.2207   32.2951   13.7137 N   0  0  0  0  0  0  0  0  0  0  0  0
   38.6455   31.9330   12.4137 C   0  0  0  0  0  0  0  0  0  0  0  0
   38.7762   30.5154   12.3563 N   0  0  0  0  0  0  0  0  0  0  0  0
  2  1  1  6  0  0  0
  2  3  1  0  0  0  0
  2  5  1  0  0  0  0
  3  4  1  0  0  0  0
  3 17  1  0  0  0  0
  5  6  1  0  0  0  0
  7  6  1  1  0  0  0
  7  8  1  0  0  0  0
  7  9  1  0  0  0  0
 10  9  1  1  0  0  0
 10 11  1  0  0  0  0
 10 12  1  0  0  0  0
 11 16  1  0  0  0  0
 12 13  1  6  0  0  0
 12 14  1  0  0  0  0
 14 15  1  6  0  0  0
 14 16  1  0  0  0  0
 16 27  1  1  0  0  0
 18 19  2  0  0  0  0
 18 23  1  0  0  0  0
 19 20  1  0  0  0  0
 20 21  2  0  0  0  0
 21 22  1  0  0  0  0
 21 27  1  0  0  0  0
 22 23  2  0  0  0  0
 22 25  1  0  0  0  0
 23 24  1  0  0  0  0
 25 26  2  0  0  0  0
 26 27  1  0  0  0  0
M  END
>  <CHROM.1>
-152.69304608,82.12367752,-75.20143510,68.83095018,-172.38133838,-91.77733604
14.42641730,39.48456569,28.07742873,13.70520943,1.39631721,-1.01291645,2.47377750

>  <Name>
ligand

>  <RI>
0

>  <Rbt.Current_Directory>
/home/itssahil/PROJECTS/Mol_Feturizer/New_Systems/rnas/3GX2

>  <Rbt.Executable>
rbdock ($Id: //depot/dev/client3/rdock/2013.1/src/exe/rbdock.cxx#4 $)

>  <Rbt.Library>
libRbt.so (2013.1, Build901 2013/11/27)

>  <Rbt.Parameter_File>
/export/apps/rDock/src/rDock_2013.1_src/data/scripts/dock_solv.prm

>  <Rbt.Receptor>
prm/blind_docking_60.prm

>  <SCORE>
18.0301

>  <SCORE.INTER>
5.94886

>  <SCORE.INTER.CONST>
1

>  <SCORE.INTER.POLAR>
0

>  <SCORE.INTER.ROT>
7

>  <SCORE.INTER.SOLV>
13.1817

>  <SCORE.INTER.VDW>
-8.69466

>  <SCORE.INTER.norm>
0.220328

>  <SCORE.INTRA>
2.67967

>  <SCORE.INTRA.DIHEDRAL>
-3.8051

>  <SCORE.INTRA.DIHEDRAL.0>
13.9704

>  <SCORE.INTRA.POLAR>
0

>  <SCORE.INTRA.POLAR.0>
0

>  <SCORE.INTRA.REPUL>
0

>  <SCORE.INTRA.REPUL.0>
0

>  <SCORE.INTRA.SOLV>
8.88268

>  <SCORE.INTRA.SOLV.lig_0>
-70.9758

>  <SCORE.INTRA.VDW>
0.140879

>  <SCORE.INTRA.VDW.0>
-2.70686

>  <SCORE.INTRA.norm>
0.0992471

>  <SCORE.RESTR>
9.4016

>  <SCORE.RESTR.CAVITY>
9.4016

>  <SCORE.RESTR.norm>
0.348207

>  <SCORE.SYSTEM>
0

>  <SCORE.SYSTEM.CONST>
0

>  <SCORE.SYSTEM.DIHEDRAL>
0

>  <SCORE.SYSTEM.SOLV>
0

>  <SCORE.SYSTEM.norm>
0

>  <SCORE.heavy>
27

>  <SCORE.norm>
0.667782

>  <RMSD>
35.103

$$$$
ligand
 OpenBabel11021811473D
libRbt.so/2013.1/901 2013/11/27
 27 29  0  0  0  0  0  0  0  0999 V2000
   39.4344   24.8545   18.8857 N   0  0  0  0  0  0  0  0  0  0  0  0
   39.1000   25.0111   17.4719 C   0  0  2  0  0  0  0  0  0  0  0  0
   38.8969   23.6882   16.7304 C   0  0  0  0  0  0  0  0  0  0  0  0
   39.8486   23.1192   16.3092 O   0  0  0  0  0  0  0  0  0  0  0  0
   40.0022   25.9993   16.7034 C   0  0  0  0  0  0  0  0  0  0  0  0
   39.6600   26.3589   15.2308 C   0  0  0  0  0  0  0  0  0  0  0  0
   39.3997   25.1553   14.2863 C   0  0  2  0  0  0  0  0  0  0  0  0
   40.5421   24.2462   14.1944 N   0  0  0  0  0  0  0  0  0  0  0  0
   38.8614   25.6055   12.8932 C   0  0  0  0  0  0  0  0  0  0  0  0
   39.7541   26.5455   12.0146 C   0  0  1  0  0  0  0  0  0  0  0  0
   39.1248   27.6311   11.2713 O   0  0  0  0  0  0  0  0  0  0  0  0
   40.9743   27.2083   12.7130 C   0  0  1  0  0  0  0  0  0  0  0  0
   42.0405   26.3551   13.1494 O   0  0  0  0  0  0  0  0  0  0  0  0
   41.3078   28.4634   11.8483 C   0  0  1  0  0  0  0  0  0  0  0  0
   42.4918   28.4468   11.0875 O   0  0  0  0  0  0  0  0  0  0  0  0
   39.9788   28.7500   11.1423 C   0  0  2  0  0  0  0  0  0  0  0  0
   37.7186   22.9554   16.9762 O   0  0  0  0  0  0  0  0  0  0  0  0
   37.7548   31.2802   15.4013 N   0  0  0  0  0  0  0  0  0  0  0  0
   38.2991   29.9913   15.3658 C   0  0  0  0  0  0  0  0  0  0  0  0
   38.8588   29.4676   14.1218 N   0  0  0  0  0  0  0  0  0  0  0  0
   38.8536   30.2367   12.9888 C   0  0  0  0  0  0  0  0  0  0  0  0
   38.3021   31.5320   13.0328 C   0  0  0  0  0  0  0  0  0  0  0  0
   37.7439   32.0531   14.2727 C   0  0  0  0  0  0  0  0  0  0  0  0
   37.1713   33.3989   14.3205 N   0  0  0  0  0  0  0  0  0  0  0  0
   38.4240   32.1124   11.7178 N   0  0  0  0  0  0  0  0  0  0  0  0
   39.0496   31.1579   10.8816 C   0  0  0  0  0  0  0  0  0  0  0  0
   39.3252   29.9906   11.6507 N   0  0  0  0  0  0  0  0  0  0  0  0
  2  1  1  1  0  0  0
  2  3  1  0  0  0  0
  2  5  1  0  0  0  0
  3  4  1  0  0  0  0
  3 17  1  0  0  0  0
  5  6  1  0  0  0  0
  7  6  1  1  0  0  0
  7  8  1  0  0  0  0
  7  9  1  0  0  0  0
 10  9  1  1  0  0  0
 10 11  1  0  0  0  0
 10 12  1  0  0  0  0
 11 16  1  0  0  0  0
 12 13  1  6  0  0  0
 12 14  1  0  0  0  0
 14 15  1  6  0  0  0
 14 16  1  0  0  0  0
 16 27  1  1  0  0  0
 18 19  2  0  0  0  0
 18 23  1  0  0  0  0
 19 20  1  0  0  0  0
 20 21  2  0  0  0  0
 21 22  1  0  0  0  0
 21 27  1  0  0  0  0
 22 23  2  0  0  0  0
 22 25  1  0  0  0  0
 23 24  1  0  0  0  0
 25 26  2  0  0  0  0
 26 27  1  0  0  0  0
M  END
>  <CHROM.1>
-83.78451478,-173.93012401,-49.93543175,-59.18012443,60.54503418,-139.82983800
60.54828368,39.40537556,27.72184057,13.96655391,1.43065743,-1.00560324,2.52088663

>  <Name>
ligand

>  <RI>
0

>  <Rbt.Current_Directory>
/home/itssahil/PROJECTS/Mol_Feturizer/New_Systems/rnas/3GX2

>  <Rbt.Executable>
rbdock ($Id: //depot/dev/client3/rdock/2013.1/src/exe/rbdock.cxx#4 $)

>  <Rbt.Library>
libRbt.so (2013.1, Build901 2013/11/27)

>  <Rbt.Parameter_File>
/export/apps/rDock/src/rDock_2013.1_src/data/scripts/dock_solv.prm

>  <Rbt.Receptor>
prm/blind_docking_60.prm

>  <SCORE>
24.7099

>  <SCORE.INTER>
11.7425

>  <SCORE.INTER.CONST>
1

>  <SCORE.INTER.POLAR>
0

>  <SCORE.INTER.ROT>
7

>  <SCORE.INTER.SOLV>
14.5554

>  <SCORE.INTER.VDW>
-5.29013

>  <SCORE.INTER.norm>
0.434907

>  <SCORE.INTRA>
2.19915

>  <SCORE.INTRA.DIHEDRAL>
-4.36132

>  <SCORE.INTRA.DIHEDRAL.0>
13.9704

>  <SCORE.INTRA.POLAR>
0

>  <SCORE.INTRA.POLAR.0>
0

>  <SCORE.INTRA.REPUL>
0

>  <SCORE.INTRA.REPUL.0>
0

>  <SCORE.INTRA.SOLV>
5.69564

>  <SCORE.INTRA.SOLV.lig_0>
-70.9758

>  <SCORE.INTRA.VDW>
1.53199

>  <SCORE.INTRA.VDW.0>
-2.70686

>  <SCORE.INTRA.norm>
0.0814502

>  <SCORE.RESTR>
10.7683

>  <SCORE.RESTR.CAVITY>
10.7683

>  <SCORE.RESTR.norm>
0.398825

>  <SCORE.SYSTEM>
0

>  <SCORE.SYSTEM.CONST>
0

>  <SCORE.SYSTEM.DIHEDRAL>
0

>  <SCORE.SYSTEM.SOLV>
0

>  <SCORE.SYSTEM.norm>
0

>  <SCORE.heavy>
27

>  <SCORE.norm>
0.915182

>  <RMSD>
35.249

$$$$
ligand
 OpenBabel11021811473D
libRbt.so/2013.1/901 2013/11/27
 27 29  0  0  0  0  0  0  0  0999 V2000
   40.1973   23.8504   14.0033 N   0  0  0  0  0  0  0  0  0  0  0  0
   40.6325   24.8743   14.9506 C   0  0  2  0  0  0  0  0  0  0  0  0
   40.0753   24.6915   16.3638 C   0  0  0  0  0  0  0  0  0  0  0  0
   40.2621   25.5461   17.1649 O   0  0  0  0  0  0  0  0  0  0  0  0
   40.5034   26.3232   14.4357 C   0  0  0  0  0  0  0  0  0  0  0  0
   40.7231   26.6196   12.9260 C   0  0  0  0  0  0  0  0  0  0  0  0
   39.4992   26.3691   12.0052 C   0  0  2  0  0  0  0  0  0  0  0  0
   38.8868   25.0575   12.2164 N   0  0  0  0  0  0  0  0  0  0  0  0
   39.8199   26.6613   10.5069 C   0  0  0  0  0  0  0  0  0  0  0  0
   39.9211   28.1529   10.0408 C   0  0  1  0  0  0  0  0  0  0  0  0
   38.8282   29.0684   10.3482 O   0  0  0  0  0  0  0  0  0  0  0  0
   41.2049   28.9294   10.4469 C   0  0  1  0  0  0  0  0  0  0  0  0
   42.4503   28.5093    9.8743 O   0  0  0  0  0  0  0  0  0  0  0  0
   40.8075   30.4368   10.3850 C   0  0  1  0  0  0  0  0  0  0  0  0
   41.3590   31.2245    9.3573 O   0  0  0  0  0  0  0  0  0  0  0  0
   39.2847   30.3914   10.5460 C   0  0  2  0  0  0  0  0  0  0  0  0
   38.9921   23.8094   16.5489 O   0  0  0  0  0  0  0  0  0  0  0  0
   38.0455   29.2530   15.7089 N   0  0  0  0  0  0  0  0  0  0  0  0
   38.4580   28.3580   14.7151 C   0  0  0  0  0  0  0  0  0  0  0  0
   38.7510   28.8441   13.3687 N   0  0  0  0  0  0  0  0  0  0  0  0
   38.6245   30.1759   13.0765 C   0  0  0  0  0  0  0  0  0  0  0  0
   38.2071   31.0696   14.0820 C   0  0  0  0  0  0  0  0  0  0  0  0
   37.9145   30.5844   15.4235 C   0  0  0  0  0  0  0  0  0  0  0  0
   37.4816   31.5115   16.4696 N   0  0  0  0  0  0  0  0  0  0  0  0
   38.1578   32.3926   13.5091 N   0  0  0  0  0  0  0  0  0  0  0  0
   38.5454   32.2894   12.1523 C   0  0  0  0  0  0  0  0  0  0  0  0
   38.8403   30.9252   11.8660 N   0  0  0  0  0  0  0  0  0  0  0  0
  2  1  1  6  0  0  0
  2  3  1  0  0  0  0
  2  5  1  0  0  0  0
  3  4  1  0  0  0  0
  3 17  1  0  0  0  0
  5  6  1  0  0  0  0
  7  6  1  1  0  0  0
  7  8  1  0  0  0  0
  7  9  1  0  0  0  0
 10  9  1  1  0  0  0
 10 11  1  0  0  0  0
 10 12  1  0  0  0  0
 11 16  1  0  0  0  0
 12 13  1  6  0  0  0
 12 14  1  0  0  0  0
 14 15  1  6  0  0  0
 14 16  1  0  0  0  0
 16 27  1  1  0  0  0
 18 19  2  0  0  0  0
 18 23  1  0  0  0  0
 19 20  1  0  0  0  0
 20 21  2  0  0  0  0
 21 22  1  0  0  0  0
 21 27  1  0  0  0  0
 22 23  2  0  0  0  0
 22 25  1  0  0  0  0
 23 24  1  0  0  0  0
 25 26  2  0  0  0  0
 26 27  1  0  0  0  0
M  END
>  <CHROM.1>
-172.41030415,-33.68399989,82.60965230,-49.45900117,-75.15566363,-52.10584156
31.21538863,39.54049694,28.30269803,13.03980112,-1.54677013,1.11249650,-0.67173810

>  <Name>
ligand

>  <RI>
0

>  <Rbt.Current_Directory>
/home/itssahil/PROJECTS/Mol_Feturizer/New_Systems/rnas/3GX2

>  <Rbt.Executable>
rbdock ($Id: //depot/dev/client3/rdock/2013.1/src/exe/rbdock.cxx#4 $)

>  <Rbt.Library>
libRbt.so (2013.1, Build901 2013/11/27)

>  <Rbt.Parameter_File>
/export/apps/rDock/src/rDock_2013.1_src/data/scripts/dock_solv.prm

>  <Rbt.Receptor>
prm/blind_docking_60.prm

>  <SCORE>
18.7072

>  <SCORE.INTER>
7.88694

>  <SCORE.INTER.CONST>
1

>  <SCORE.INTER.POLAR>
0

>  <SCORE.INTER.ROT>
7

>  <SCORE.INTER.SOLV>
12.9178

>  <SCORE.INTER.VDW>
-7.31466

>  <SCORE.INTER.norm>
0.292109

>  <SCORE.INTRA>
0.474207

>  <SCORE.INTRA.DIHEDRAL>
-4.34245

>  <SCORE.INTRA.DIHEDRAL.0>
13.9704

>  <SCORE.INTRA.POLAR>
0

>  <SCORE.INTRA.POLAR.0>
0

>  <SCORE.INTRA.REPUL>
0

>  <SCORE.INTRA.REPUL.0>
0

>  <SCORE.INTRA.SOLV>
4.85475

>  <SCORE.INTRA.SOLV.lig_0>
-70.9758

>  <SCORE.INTRA.VDW>
0.218055

>  <SCORE.INTRA.VDW.0>
-2.70686

>  <SCORE.INTRA.norm>
0.0175632

>  <SCORE.RESTR>
10.346

>  <SCORE.RESTR.CAVITY>
10.346

>  <SCORE.RESTR.norm>
0.383186

>  <SCORE.SYSTEM>
0

>  <SCORE.SYSTEM.CONST>
0

>  <SCORE.SYSTEM.DIHEDRAL>
0

>  <SCORE.SYSTEM.SOLV>
0

>  <SCORE.SYSTEM.norm>
0

>  <SCORE.heavy>
27

>  <SCORE.norm>
0.692858

>  <RMSD>
35.259

$$$$
ligand
 OpenBabel11021811473D
libRbt.so/2013.1/901 2013/11/27
 27 29  0  0  0  0  0  0  0  0999 V2000
   39.6314   27.2802    8.5066 N   0  0  0  0  0  0  0  0  0  0  0  0
   39.9260   28.2923    9.5185 C   0  0  2  0  0  0  0  0  0  0  0  0
   40.8781   29.3908    9.0410 C   0  0  0  0  0  0  0  0  0  0  0  0
   40.4235   30.3429    8.4991 O   0  0  0  0  0  0  0  0  0  0  0  0
   40.3065   27.7260   10.9026 C   0  0  0  0  0  0  0  0  0  0  0  0
   39.4109   26.6360   11.5543 C   0  0  0  0  0  0  0  0  0  0  0  0
   39.9360   25.1796   11.4467 C   0  0  2  0  0  0  0  0  0  0  0  0
   39.4466   24.4844   10.2563 N   0  0  0  0  0  0  0  0  0  0  0  0
   39.7105   24.3735   12.7629 C   0  0  0  0  0  0  0  0  0  0  0  0
   40.1811   25.0047   14.1166 C   0  0  1  0  0  0  0  0  0  0  0  0
   40.5749   26.4087   14.1461 O   0  0  0  0  0  0  0  0  0  0  0  0
   39.2301   24.8416   15.3351 C   0  0  1  0  0  0  0  0  0  0  0  0
   39.0236   23.5200   15.8506 O   0  0  0  0  0  0  0  0  0  0  0  0
   39.6222   25.9898   16.3160 C   0  0  1  0  0  0  0  0  0  0  0  0
   40.2704   25.6420   17.5159 O   0  0  0  0  0  0  0  0  0  0  0  0
   40.2824   27.0152   15.3889 C   0  0  2  0  0  0  0  0  0  0  0  0
   42.1432   29.4945    9.6529 O   0  0  0  0  0  0  0  0  0  0  0  0
   39.3963   31.5163   12.4833 N   0  0  0  0  0  0  0  0  0  0  0  0
   40.3909   30.5531   12.2790 C   0  0  0  0  0  0  0  0  0  0  0  0
   40.4823   29.3961   13.1668 N   0  0  0  0  0  0  0  0  0  0  0  0
   39.5945   29.2506   14.1991 C   0  0  0  0  0  0  0  0  0  0  0  0
   38.5977   30.2256   14.3989 C   0  0  0  0  0  0  0  0  0  0  0  0
   38.5077   31.3787   13.5142 C   0  0  0  0  0  0  0  0  0  0  0  0
   37.4723   32.3922   13.7196 N   0  0  0  0  0  0  0  0  0  0  0  0
   37.8110   29.8301   15.5415 N   0  0  0  0  0  0  0  0  0  0  0  0
   38.3417   28.6129   16.0298 C   0  0  0  0  0  0  0  0  0  0  0  0
   39.4453   28.2368   15.2108 N   0  0  0  0  0  0  0  0  0  0  0  0
  2  1  1  6  0  0  0
  2  3  1  0  0  0  0
  2  5  1  0  0  0  0
  3  4  1  0  0  0  0
  3 17  1  0  0  0  0
  5  6  1  0  0  0  0
  7  6  1  1  0  0  0
  7  8  1  0  0  0  0
  7  9  1  0  0  0  0
 10  9  1  6  0  0  0
 10 11  1  0  0  0  0
 10 12  1  0  0  0  0
 11 16  1  0  0  0  0
 12 13  1  1  0  0  0
 12 14  1  0  0  0  0
 14 15  1  1  0  0  0
 14 16  1  0  0  0  0
 16 27  1  6  0  0  0
 18 19  2  0  0  0  0
 18 23  1  0  0  0  0
 19 20  1  0  0  0  0
 20 21  2  0  0  0  0
 21 22  1  0  0  0  0
 21 27  1  0  0  0  0
 22 23  2  0  0  0  0
 22 25  1  0  0  0  0
 23 24  1  0  0  0  0
 25 26  2  0  0  0  0
 26 27  1  0  0  0  0
M  END
>  <CHROM.1>
87.63881441,-49.28932681,101.19078621,-91.09819487,-50.55991843,11.57381576
-41.69330119,39.69934486,27.83595749,12.98710369,-1.17200970,-1.32953377
2.59056838

>  <Name>
ligand

>  <RI>
0

>  <Rbt.Current_Directory>
/home/itssahil/PROJECTS/Mol_Feturizer/New_Systems/rnas/3GX2

>  <Rbt.Executable>
rbdock ($Id: //depot/dev/client3/rdock/2013.1/src/exe/rbdock.cxx#4 $)

>  <Rbt.Library>
libRbt.so (2013.1, Build901 2013/11/27)

>  <Rbt.Parameter_File>
/export/apps/rDock/src/rDock_2013.1_src/data/scripts/dock_solv.prm

>  <Rbt.Receptor>
prm/blind_docking_60.prm

>  <SCORE>
15.3218

>  <SCORE.INTER>
2.50798

>  <SCORE.INTER.CONST>
1

>  <SCORE.INTER.POLAR>
0

>  <SCORE.INTER.ROT>
7

>  <SCORE.INTER.SOLV>
12.5471

>  <SCORE.INTER.VDW>
-10.777

>  <SCORE.INTER.norm>
0.0928881

>  <SCORE.INTRA>
3.25983

>  <SCORE.INTRA.DIHEDRAL>
3.82964

>  <SCORE.INTRA.DIHEDRAL.0>
13.9704

>  <SCORE.INTRA.POLAR>
0

>  <SCORE.INTRA.POLAR.0>
0

>  <SCORE.INTRA.REPUL>
0

>  <SCORE.INTRA.REPUL.0>
0

>  <SCORE.INTRA.SOLV>
2.46733

>  <SCORE.INTRA.SOLV.lig_0>
-70.9758

>  <SCORE.INTRA.VDW>
0.111337

>  <SCORE.INTRA.VDW.0>
-2.70686

>  <SCORE.INTRA.norm>
0.120734

>  <SCORE.RESTR>
9.55405

>  <SCORE.RESTR.CAVITY>
9.55405

>  <SCORE.RESTR.norm>
0.353854

>  <SCORE.SYSTEM>
0

>  <SCORE.SYSTEM.CONST>
0

>  <SCORE.SYSTEM.DIHEDRAL>
0

>  <SCORE.SYSTEM.SOLV>
0

>  <SCORE.SYSTEM.norm>
0

>  <SCORE.heavy>
27

>  <SCORE.norm>
0.567476

>  <RMSD>
35.298

$$$$
ligand
 OpenBabel11021811473D
libRbt.so/2013.1/901 2013/11/27
 27 29  0  0  0  0  0  0  0  0999 V2000
   39.1717   29.2859    9.3121 N   0  0  0  0  0  0  0  0  0  0  0  0
   39.9255   28.6115   10.3666 C   0  0  2  0  0  0  0  0  0  0  0  0
   41.4429   28.7623   10.2405 C   0  0  0  0  0  0  0  0  0  0  0  0
   42.1377   28.2106   11.0277 O   0  0  0  0  0  0  0  0  0  0  0  0
   39.4862   27.1582   10.6422 C   0  0  0  0  0  0  0  0  0  0  0  0
   40.0694   26.4037   11.8694 C   0  0  0  0  0  0  0  0  0  0  0  0
   39.5444   24.9591   12.0839 C   0  0  2  0  0  0  0  0  0  0  0  0
   38.0992   24.9053   12.3038 N   0  0  0  0  0  0  0  0  0  0  0  0
   40.3585   24.1922   13.1713 C   0  0  0  0  0  0  0  0  0  0  0  0
   40.3568   24.7460   14.6361 C   0  0  1  0  0  0  0  0  0  0  0  0
   40.6770   26.1505   14.8643 O   0  0  0  0  0  0  0  0  0  0  0  0
   39.0747   24.4973   15.4788 C   0  0  1  0  0  0  0  0  0  0  0  0
   38.7570   23.1444   15.8305 O   0  0  0  0  0  0  0  0  0  0  0  0
   39.1004   25.5887   16.5934 C   0  0  1  0  0  0  0  0  0  0  0  0
   39.3462   25.1769   17.9166 O   0  0  0  0  0  0  0  0  0  0  0  0
   39.9876   26.6767   15.9804 C   0  0  2  0  0  0  0  0  0  0  0  0
   41.9801   29.1131    8.9859 O   0  0  0  0  0  0  0  0  0  0  0  0
   39.7158   31.0919   12.8309 N   0  0  0  0  0  0  0  0  0  0  0  0
   40.7211   30.1183   12.8472 C   0  0  0  0  0  0  0  0  0  0  0  0
   40.6303   28.9883   13.7691 N   0  0  0  0  0  0  0  0  0  0  0  0
   39.5612   28.8782   14.6177 C   0  0  0  0  0  0  0  0  0  0  0  0
   38.5548   29.8635   14.5961 C   0  0  0  0  0  0  0  0  0  0  0  0
   38.6463   30.9897   13.6776 C   0  0  0  0  0  0  0  0  0  0  0  0
   37.6012   32.0137   13.6531 N   0  0  0  0  0  0  0  0  0  0  0  0
   37.5614   29.5064   15.5793 N   0  0  0  0  0  0  0  0  0  0  0  0
   37.9772   28.3021   16.1944 C   0  0  0  0  0  0  0  0  0  0  0  0
   39.2122   27.8962   15.6113 N   0  0  0  0  0  0  0  0  0  0  0  0
  2  1  1  6  0  0  0
  2  3  1  0  0  0  0
  2  5  1  0  0  0  0
  3  4  1  0  0  0  0
  3 17  1  0  0  0  0
  5  6  1  0  0  0  0
  7  6  1  1  0  0  0
  7  8  1  0  0  0  0
  7  9  1  0  0  0  0
 10  9  1  6  0  0  0
 10 11  1  0  0  0  0
 10 12  1  0  0  0  0
 11 16  1  0  0  0  0
 12 13  1  1  0  0  0
 12 14  1  0  0  0  0
 14 15  1  1  0  0  0
 14 16  1  0  0  0  0
 16 27  1  6  0  0  0
 18 19  2  0  0  0  0
 18 23  1  0  0  0  0
 19 20  1  0  0  0  0
 20 21  2  0  0  0  0
 21 22  1  0  0  0  0
 21 27  1  0  0  0  0
 22 23  2  0  0  0  0
 22 25  1  0  0  0  0
 23 24  1  0  0  0  0
 25 26  2  0  0  0  0
 26 27  1  0  0  0  0
M  END
>  <CHROM.1>
-177.52993561,-171.37171618,178.64515814,-60.93241739,62.16851392,-51.07147683
-32.47276576,39.65280139,27.53791043,13.48641012,-1.12433289,-1.20242480
2.72029338

>  <Name>
ligand

>  <RI>
0

>  <Rbt.Current_Directory>
/home/itssahil/PROJECTS/Mol_Feturizer/New_Systems/rnas/3GX2

>  <Rbt.Executable>
rbdock ($Id: //depot/dev/client3/rdock/2013.1/src/exe/rbdock.cxx#4 $)

>  <Rbt.Library>
libRbt.so (2013.1, Build901 2013/11/27)

>  <Rbt.Parameter_File>
/export/apps/rDock/src/rDock_2013.1_src/data/scripts/dock_solv.prm

>  <Rbt.Receptor>
prm/blind_docking_60.prm

>  <SCORE>
4.75129

>  <SCORE.INTER>
-0.646002

>  <SCORE.INTER.CONST>
1

>  <SCORE.INTER.POLAR>
0

>  <SCORE.INTER.ROT>
7

>  <SCORE.INTER.SOLV>
9.33876

>  <SCORE.INTER.VDW>
-11.8103

>  <SCORE.INTER.norm>
-0.023926

>  <SCORE.INTRA>
-3.98209

>  <SCORE.INTRA.DIHEDRAL>
-8.93486

>  <SCORE.INTRA.DIHEDRAL.0>
13.9704

>  <SCORE.INTRA.POLAR>
0

>  <SCORE.INTRA.POLAR.0>
0

>  <SCORE.INTRA.REPUL>
0

>  <SCORE.INTRA.REPUL.0>
0

>  <SCORE.INTRA.SOLV>
2.28293

>  <SCORE.INTRA.SOLV.lig_0>
-70.9758

>  <SCORE.INTRA.VDW>
-0.656126

>  <SCORE.INTRA.VDW.0>
-2.70686

>  <SCORE.INTRA.norm>
-0.147485

>  <SCORE.RESTR>
9.37939

>  <SCORE.RESTR.CAVITY>
9.37939

>  <SCORE.RESTR.norm>
0.347385

>  <SCORE.SYSTEM>
0

>  <SCORE.SYSTEM.CONST>
0

>  <SCORE.SYSTEM.DIHEDRAL>
0

>  <SCORE.SYSTEM.SOLV>
0

>  <SCORE.SYSTEM.norm>
0

>  <SCORE.heavy>
27

>  <SCORE.norm>
0.175974

>  <RMSD>
35.308

$$$$
ligand
 OpenBabel11021811473D
libRbt.so/2013.1/901 2013/11/27
 27 29  0  0  0  0  0  0  0  0999 V2000
   39.5172   28.4666    8.6808 N   0  0  0  0  0  0  0  0  0  0  0  0
   39.9409   28.6357   10.0689 C   0  0  2  0  0  0  0  0  0  0  0  0
   41.4343   28.9262   10.2325 C   0  0  0  0  0  0  0  0  0  0  0  0
   42.1168   28.1172   10.7679 O   0  0  0  0  0  0  0  0  0  0  0  0
   39.4308   27.5455   11.0344 C   0  0  0  0  0  0  0  0  0  0  0  0
   39.5874   26.0485   10.6474 C   0  0  0  0  0  0  0  0  0  0  0  0
   38.4921   25.0936   11.1923 C   0  0  2  0  0  0  0  0  0  0  0  0
   37.2971   25.8012   11.6517 N   0  0  0  0  0  0  0  0  0  0  0  0
   39.0553   24.0930   12.2481 C   0  0  0  0  0  0  0  0  0  0  0  0
   39.8079   24.6671   13.4957 C   0  0  1  0  0  0  0  0  0  0  0  0
   40.7547   25.7611   13.3121 O   0  0  0  0  0  0  0  0  0  0  0  0
   38.9322   25.1086   14.7015 C   0  0  1  0  0  0  0  0  0  0  0  0
   38.2143   24.0930   15.4146 O   0  0  0  0  0  0  0  0  0  0  0  0
   39.8133   26.1206   15.4975 C   0  0  1  0  0  0  0  0  0  0  0  0
   40.3095   25.7210   16.7525 O   0  0  0  0  0  0  0  0  0  0  0  0
   40.7998   26.6172   14.4359 C   0  0  2  0  0  0  0  0  0  0  0  0
   42.0361   29.8562    9.3615 O   0  0  0  0  0  0  0  0  0  0  0  0
   37.5806   30.9561   14.9816 N   0  0  0  0  0  0  0  0  0  0  0  0
   37.4340   29.7051   15.5918 C   0  0  0  0  0  0  0  0  0  0  0  0
   38.4033   28.6442   15.3275 N   0  0  0  0  0  0  0  0  0  0  0  0
   39.4578   28.8717   14.4841 C   0  0  0  0  0  0  0  0  0  0  0  0
   39.5969   30.1329   13.8726 C   0  0  0  0  0  0  0  0  0  0  0  0
   38.6300   31.1896   14.1358 C   0  0  0  0  0  0  0  0  0  0  0  0
   38.7733   32.5008   13.5022 N   0  0  0  0  0  0  0  0  0  0  0  0
   40.7770   30.0980   13.0438 N   0  0  0  0  0  0  0  0  0  0  0  0
   41.3459   28.8077   13.1580 C   0  0  0  0  0  0  0  0  0  0  0  0
   40.5446   28.0344   14.0468 N   0  0  0  0  0  0  0  0  0  0  0  0
  2  1  1  6  0  0  0
  2  3  1  0  0  0  0
  2  5  1  0  0  0  0
  3  4  1  0  0  0  0
  3 17  1  0  0  0  0
  5  6  1  0  0  0  0
  7  6  1  1  0  0  0
  7  8  1  0  0  0  0
  7  9  1  0  0  0  0
 10  9  1  6  0  0  0
 10 11  1  0  0  0  0
 10 12  1  0  0  0  0
 11 16  1  0  0  0  0
 12 13  1  1  0  0  0
 12 14  1  0  0  0  0
 14 15  1  1  0  0  0
 14 16  1  0  0  0  0
 16 27  1  6  0  0  0
 18 19  2  0  0  0  0
 18 23  1  0  0  0  0
 19 20  1  0  0  0  0
 20 21  2  0  0  0  0
 21 22  1  0  0  0  0
 21 27  1  0  0  0  0
 22 23  2  0  0  0  0
 22 25  1  0  0  0  0
 23 24  1  0  0  0  0
 25 26  2  0  0  0  0
 26 27  1  0  0  0  0
M  END
>  <CHROM.1>
-113.64889059,48.59146888,-149.27321984,16.54968993,55.11338357,-42.65866575
118.16851054,39.66530515,27.70610097,12.99722451,-0.82707647,-1.26576493
-3.07227225

>  <Name>
ligand

>  <RI>
0

>  <Rbt.Current_Directory>
/home/itssahil/PROJECTS/Mol_Feturizer/New_Systems/rnas/3GX2

>  <Rbt.Executable>
rbdock ($Id: //depot/dev/client3/rdock/2013.1/src/exe/rbdock.cxx#4 $)

>  <Rbt.Library>
libRbt.so (2013.1, Build901 2013/11/27)

>  <Rbt.Parameter_File>
/export/apps/rDock/src/rDock_2013.1_src/data/scripts/dock_solv.prm

>  <Rbt.Receptor>
prm/blind_docking_60.prm

>  <SCORE>
17.2906

>  <SCORE.INTER>
4.27762

>  <SCORE.INTER.CONST>
1

>  <SCORE.INTER.POLAR>
0

>  <SCORE.INTER.ROT>
7

>  <SCORE.INTER.SOLV>
12.6397

>  <SCORE.INTER.VDW>
-9.62816

>  <SCORE.INTER.norm>
0.15843

>  <SCORE.INTRA>
2.26648

>  <SCORE.INTRA.DIHEDRAL>
0.263324

>  <SCORE.INTRA.DIHEDRAL.0>
13.9704

>  <SCORE.INTRA.POLAR>
0

>  <SCORE.INTRA.POLAR.0>
0

>  <SCORE.INTRA.REPUL>
0.0495579

>  <SCORE.INTRA.REPUL.0>
0

>  <SCORE.INTRA.SOLV>
3.27379

>  <SCORE.INTRA.SOLV.lig_0>
-70.9758

>  <SCORE.INTRA.VDW>
0.250137

>  <SCORE.INTRA.VDW.0>
-2.70686

>  <SCORE.INTRA.norm>
0.0839438

>  <SCORE.RESTR>
10.7465

>  <SCORE.RESTR.CAVITY>
10.7465

>  <SCORE.RESTR.norm>
0.398018

>  <SCORE.SYSTEM>
0

>  <SCORE.SYSTEM.CONST>
0

>  <SCORE.SYSTEM.DIHEDRAL>
0

>  <SCORE.SYSTEM.SOLV>
0

>  <SCORE.SYSTEM.norm>
0

>  <SCORE.heavy>
27

>  <SCORE.norm>
0.640392

>  <RMSD>
35.399

$$$$
ligand
 OpenBabel11021811473D
libRbt.so/2013.1/901 2013/11/27
 27 29  0  0  0  0  0  0  0  0999 V2000
   37.2877   31.6264   13.0490 N   0  0  0  0  0  0  0  0  0  0  0  0
   38.4834   31.1812   13.7609 C   0  0  2  0  0  0  0  0  0  0  0  0
   39.4832   30.4235   12.8849 C   0  0  0  0  0  0  0  0  0  0  0  0
   39.2791   29.2798   12.6460 O   0  0  0  0  0  0  0  0  0  0  0  0
   38.2063   30.4761   15.1052 C   0  0  0  0  0  0  0  0  0  0  0  0
   38.0104   28.9347   15.1330 C   0  0  0  0  0  0  0  0  0  0  0  0
   38.4229   28.2268   16.4510 C   0  0  2  0  0  0  0  0  0  0  0  0
   39.8196   28.4671   16.8134 N   0  0  0  0  0  0  0  0  0  0  0  0
   38.0415   26.7142   16.4513 C   0  0  0  0  0  0  0  0  0  0  0  0
   38.7084   25.7745   15.3909 C   0  0  1  0  0  0  0  0  0  0  0  0
   38.6618   26.1484   13.9819 O   0  0  0  0  0  0  0  0  0  0  0  0
   40.1903   25.3768   15.6391 C   0  0  1  0  0  0  0  0  0  0  0  0
   40.4804   24.5505   16.7741 O   0  0  0  0  0  0  0  0  0  0  0  0
   40.7442   24.9698   14.2385 C   0  0  1  0  0  0  0  0  0  0  0  0
   41.0268   23.6104   14.0087 O   0  0  0  0  0  0  0  0  0  0  0  0
   39.8030   25.7025   13.2772 C   0  0  2  0  0  0  0  0  0  0  0  0
   40.3097   31.1639   12.0162 O   0  0  0  0  0  0  0  0  0  0  0  0
   40.3334   28.4911    8.6480 N   0  0  0  0  0  0  0  0  0  0  0  0
   39.4990   27.3938    8.8901 C   0  0  0  0  0  0  0  0  0  0  0  0
   39.4856   26.7615   10.2073 N   0  0  0  0  0  0  0  0  0  0  0  0
   40.2875   27.2419   11.2080 C   0  0  0  0  0  0  0  0  0  0  0  0
   41.1255   28.3454   10.9554 C   0  0  0  0  0  0  0  0  0  0  0  0
   41.1390   28.9746    9.6422 C   0  0  0  0  0  0  0  0  0  0  0  0
   42.0082   30.1218    9.3781 N   0  0  0  0  0  0  0  0  0  0  0  0
   41.8531   28.6380   12.1662 N   0  0  0  0  0  0  0  0  0  0  0  0
   41.4501   27.7025   13.1480 C   0  0  0  0  0  0  0  0  0  0  0  0
   40.4798   26.8309   12.5746 N   0  0  0  0  0  0  0  0  0  0  0  0
  2  1  1  6  0  0  0
  2  3  1  0  0  0  0
  2  5  1  0  0  0  0
  3  4  1  0  0  0  0
  3 17  1  0  0  0  0
  5  6  1  0  0  0  0
  7  6  1  6  0  0  0
  7  8  1  0  0  0  0
  7  9  1  0  0  0  0
 10  9  1  1  0  0  0
 10 11  1  0  0  0  0
 10 12  1  0  0  0  0
 11 16  1  0  0  0  0
 12 13  1  1  0  0  0
 12 14  1  0  0  0  0
 14 15  1  6  0  0  0
 14 16  1  0  0  0  0
 16 27  1  1  0  0  0
 18 19  2  0  0  0  0
 18 23  1  0  0  0  0
 19 20  1  0  0  0  0
 20 21  2  0  0  0  0
 21 22  1  0  0  0  0
 21 27  1  0  0  0  0
 22 23  2  0  0  0  0
 22 25  1  0  0  0  0
 23 24  1  0  0  0  0
 25 26  2  0  0  0  0
 26 27  1  0  0  0  0
M  END
>  <CHROM.1>
-79.90147968,90.21501914,151.15716751,-57.34106070,63.06786954,-51.91273667
-94.38826857,39.78770457,27.87701079,13.18556492,1.26292761,1.12339494,-0.71899189

>  <Name>
ligand

>  <RI>
0

>  <Rbt.Current_Directory>
/home/itssahil/PROJECTS/Mol_Feturizer/New_Systems/rnas/3GX2

>  <Rbt.Executable>
rbdock ($Id: //depot/dev/client3/rdock/2013.1/src/exe/rbdock.cxx#4 $)

>  <Rbt.Library>
libRbt.so (2013.1, Build901 2013/11/27)

>  <Rbt.Parameter_File>
/export/apps/rDock/src/rDock_2013.1_src/data/scripts/dock_solv.prm

>  <Rbt.Receptor>
prm/blind_docking_60.prm

>  <SCORE>
12.7142

>  <SCORE.INTER>
2.28396

>  <SCORE.INTER.CONST>
1

>  <SCORE.INTER.POLAR>
0

>  <SCORE.INTER.ROT>
7

>  <SCORE.INTER.SOLV>
16.9291

>  <SCORE.INTER.VDW>
-12.3871

>  <SCORE.INTER.norm>
0.0845913

>  <SCORE.INTRA>
0.490393

>  <SCORE.INTRA.DIHEDRAL>
-3.57261

>  <SCORE.INTRA.DIHEDRAL.0>
13.9704

>  <SCORE.INTRA.POLAR>
0

>  <SCORE.INTRA.POLAR.0>
0

>  <SCORE.INTRA.REPUL>
0

>  <SCORE.INTRA.REPUL.0>
0

>  <SCORE.INTRA.SOLV>
5.41077

>  <SCORE.INTRA.SOLV.lig_0>
-70.9758

>  <SCORE.INTRA.VDW>
-0.428687

>  <SCORE.INTRA.VDW.0>
-2.70686

>  <SCORE.INTRA.norm>
0.0181627

>  <SCORE.RESTR>
9.93989

>  <SCORE.RESTR.CAVITY>
9.93989

>  <SCORE.RESTR.norm>
0.368144

>  <SCORE.SYSTEM>
0

>  <SCORE.SYSTEM.CONST>
0

>  <SCORE.SYSTEM.DIHEDRAL>
0

>  <SCORE.SYSTEM.SOLV>
0

>  <SCORE.SYSTEM.norm>
0

>  <SCORE.heavy>
27

>  <SCORE.norm>
0.470898

>  <RMSD>
35.445

$$$$
ligand
 OpenBabel11021811473D
libRbt.so/2013.1/901 2013/11/27
 27 29  0  0  0  0  0  0  0  0999 V2000
   37.5107   31.3477   16.0783 N   0  0  0  0  0  0  0  0  0  0  0  0
   37.6577   30.6600   14.7975 C   0  0  2  0  0  0  0  0  0  0  0  0
   37.6083   29.1342   14.9013 C   0  0  0  0  0  0  0  0  0  0  0  0
   37.7046   28.4922   13.9087 O   0  0  0  0  0  0  0  0  0  0  0  0
   38.8262   31.1662   13.9261 C   0  0  0  0  0  0  0  0  0  0  0  0
   39.0560   30.5443   12.5205 C   0  0  0  0  0  0  0  0  0  0  0  0
   40.2175   31.1578   11.6941 C   0  0  2  0  0  0  0  0  0  0  0  0
   40.0689   32.5980   11.4851 N   0  0  0  0  0  0  0  0  0  0  0  0
   40.4799   30.3710   10.3730 C   0  0  0  0  0  0  0  0  0  0  0  0
   40.6092   28.8120   10.4441 C   0  0  1  0  0  0  0  0  0  0  0  0
   41.3944   28.2130   11.5173 O   0  0  0  0  0  0  0  0  0  0  0  0
   39.2859   27.9967   10.4285 C   0  0  1  0  0  0  0  0  0  0  0  0
   38.4956   28.0265    9.2328 O   0  0  0  0  0  0  0  0  0  0  0  0
   39.6461   26.6209   11.0700 C   0  0  1  0  0  0  0  0  0  0  0  0
   39.6718   25.4883   10.2349 O   0  0  0  0  0  0  0  0  0  0  0  0
   40.8867   26.9523   11.9055 C   0  0  2  0  0  0  0  0  0  0  0  0
   37.9339   28.5349   16.1344 O   0  0  0  0  0  0  0  0  0  0  0  0
   40.2082   23.8319   16.2975 N   0  0  0  0  0  0  0  0  0  0  0  0
   40.4808   23.4138   14.9899 C   0  0  0  0  0  0  0  0  0  0  0  0
   40.6330   24.4006   13.9231 N   0  0  0  0  0  0  0  0  0  0  0  0
   40.5111   25.7361   14.2001 C   0  0  0  0  0  0  0  0  0  0  0  0
   40.2348   26.1482   15.5184 C   0  0  0  0  0  0  0  0  0  0  0  0
   40.0825   25.1642   16.5810 C   0  0  0  0  0  0  0  0  0  0  0  0
   39.7964   25.5905   17.9513 N   0  0  0  0  0  0  0  0  0  0  0  0
   40.1576   27.5887   15.5273 N   0  0  0  0  0  0  0  0  0  0  0  0
   40.3863   28.0408   14.2064 C   0  0  0  0  0  0  0  0  0  0  0  0
   40.6092   26.9088   13.3704 N   0  0  0  0  0  0  0  0  0  0  0  0
  2  1  1  1  0  0  0
  2  3  1  0  0  0  0
  2  5  1  0  0  0  0
  3  4  1  0  0  0  0
  3 17  1  0  0  0  0
  5  6  1  0  0  0  0
  7  6  1  6  0  0  0
  7  8  1  0  0  0  0
  7  9  1  0  0  0  0
 10  9  1  1  0  0  0
 10 11  1  0  0  0  0
 10 12  1  0  0  0  0
 11 16  1  0  0  0  0
 12 13  1  6  0  0  0
 12 14  1  0  0  0  0
 14 15  1  6  0  0  0
 14 16  1  0  0  0  0
 16 27  1  1  0  0  0
 18 19  2  0  0  0  0
 18 23  1  0  0  0  0
 19 20  1  0  0  0  0
 20 21  2  0  0  0  0
 21 22  1  0  0  0  0
 21 27  1  0  0  0  0
 22 23  2  0  0  0  0
 22 25  1  0  0  0  0
 23 24  1  0  0  0  0
 25 26  2  0  0  0  0
 26 27  1  0  0  0  0
M  END
>  <CHROM.1>
179.17746287,-178.01195335,177.53509649,-57.26212104,-48.76836268,-43.36758257
-158.20410733,39.60446994,27.92591518,13.39833901,1.80963526,1.22137302,-0.93212182

>  <Name>
ligand

>  <RI>
0

>  <Rbt.Current_Directory>
/home/itssahil/PROJECTS/Mol_Feturizer/New_Systems/rnas/3GX2

>  <Rbt.Executable>
rbdock ($Id: //depot/dev/client3/rdock/2013.1/src/exe/rbdock.cxx#4 $)

>  <Rbt.Library>
libRbt.so (2013.1, Build901 2013/11/27)

>  <Rbt.Parameter_File>
/export/apps/rDock/src/rDock_2013.1_src/data/scripts/dock_solv.prm

>  <Rbt.Receptor>
prm/blind_docking_60.prm

>  <SCORE>
9.28762

>  <SCORE.INTER>
2.31322

>  <SCORE.INTER.CONST>
1

>  <SCORE.INTER.POLAR>
0

>  <SCORE.INTER.ROT>
7

>  <SCORE.INTER.SOLV>
15.3692

>  <SCORE.INTER.VDW>
-11.8476

>  <SCORE.INTER.norm>
0.0856747

>  <SCORE.INTRA>
-3.30747

>  <SCORE.INTRA.DIHEDRAL>
-7.8831

>  <SCORE.INTRA.DIHEDRAL.0>
13.9704

>  <SCORE.INTRA.POLAR>
0

>  <SCORE.INTRA.POLAR.0>
0

>  <SCORE.INTRA.REPUL>
0

>  <SCORE.INTRA.REPUL.0>
0

>  <SCORE.INTRA.SOLV>
1.32031

>  <SCORE.INTRA.SOLV.lig_0>
-70.9758

>  <SCORE.INTRA.VDW>
-0.026076

>  <SCORE.INTRA.VDW.0>
-2.70686

>  <SCORE.INTRA.norm>
-0.122499

>  <SCORE.RESTR>
10.2819

>  <SCORE.RESTR.CAVITY>
10.2819

>  <SCORE.RESTR.norm>
0.38081

>  <SCORE.SYSTEM>
0

>  <SCORE.SYSTEM.CONST>
0

>  <SCORE.SYSTEM.DIHEDRAL>
0

>  <SCORE.SYSTEM.SOLV>
0

>  <SCORE.SYSTEM.norm>
0

>  <SCORE.heavy>
27

>  <SCORE.norm>
0.343986

>  <RMSD>
35.525

$$$$
ligand
 OpenBabel11021811473D
libRbt.so/2013.1/901 2013/11/27
 27 29  0  0  0  0  0  0  0  0999 V2000
   38.4904   28.4594   11.6008 N   0  0  0  0  0  0  0  0  0  0  0  0
   39.8243   27.9401   11.3075 C   0  0  2  0  0  0  0  0  0  0  0  0
   40.4590   28.5318   10.0472 C   0  0  0  0  0  0  0  0  0  0  0  0
   41.5405   29.0125   10.1258 O   0  0  0  0  0  0  0  0  0  0  0  0
   39.9459   26.4035   11.3778 C   0  0  0  0  0  0  0  0  0  0  0  0
   40.0065   25.7048   12.7647 C   0  0  0  0  0  0  0  0  0  0  0  0
   39.8778   24.1584   12.7462 C   0  0  2  0  0  0  0  0  0  0  0  0
   38.5061   23.7038   12.5187 N   0  0  0  0  0  0  0  0  0  0  0  0
   40.5434   23.4971   13.9924 C   0  0  0  0  0  0  0  0  0  0  0  0
   40.3650   24.1840   15.3883 C   0  0  1  0  0  0  0  0  0  0  0  0
   40.7988   25.5659   15.5602 O   0  0  0  0  0  0  0  0  0  0  0  0
   38.9430   24.1419   16.0145 C   0  0  1  0  0  0  0  0  0  0  0  0
   38.4230   22.8655   16.4088 O   0  0  0  0  0  0  0  0  0  0  0  0
   38.9086   25.3257   17.0301 C   0  0  1  0  0  0  0  0  0  0  0  0
   38.8878   25.0185   18.4034 O   0  0  0  0  0  0  0  0  0  0  0  0
   39.9999   26.2595   16.4974 C   0  0  2  0  0  0  0  0  0  0  0  0
   40.0031   28.0819    8.7920 O   0  0  0  0  0  0  0  0  0  0  0  0
   40.6513   30.2585   12.8820 N   0  0  0  0  0  0  0  0  0  0  0  0
   41.5116   29.1815   13.1244 C   0  0  0  0  0  0  0  0  0  0  0  0
   41.1745   28.1912   14.1447 N   0  0  0  0  0  0  0  0  0  0  0  0
   40.0160   28.3135   14.8644 C   0  0  0  0  0  0  0  0  0  0  0  0
   39.1568   29.4015   14.6155 C   0  0  0  0  0  0  0  0  0  0  0  0
   39.4937   30.3884   13.5991 C   0  0  0  0  0  0  0  0  0  0  0  0
   38.6018   31.5189   13.3384 N   0  0  0  0  0  0  0  0  0  0  0  0
   38.0259   29.2878   15.5038 N   0  0  0  0  0  0  0  0  0  0  0  0
   38.2109   28.1266   16.2906 C   0  0  0  0  0  0  0  0  0  0  0  0
   39.4364   27.5086   15.9083 N   0  0  0  0  0  0  0  0  0  0  0  0
  2  1  1  6  0  0  0
  2  3  1  0  0  0  0
  2  5  1  0  0  0  0
  3  4  1  0  0  0  0
  3 17  1  0  0  0  0
  5  6  1  0  0  0  0
  7  6  1  1  0  0  0
  7  8  1  0  0  0  0
  7  9  1  0  0  0  0
 10  9  1  6  0  0  0
 10 11  1  0  0  0  0
 10 12  1  0  0  0  0
 11 16  1  0  0  0  0
 12 13  1  1  0  0  0
 12 14  1  0  0  0  0
 14 15  1  1  0  0  0
 14 16  1  0  0  0  0
 16 27  1  6  0  0  0
 18 19  2  0  0  0  0
 18 23  1  0  0  0  0
 19 20  1  0  0  0  0
 20 21  2  0  0  0  0
 21 22  1  0  0  0  0
 21 27  1  0  0  0  0
 22 23  2  0  0  0  0
 22 25  1  0  0  0  0
 23 24  1  0  0  0  0
 25 26  2  0  0  0  0
 26 27  1  0  0  0  0
M  END
>  <CHROM.1>
126.77551126,-76.22276665,169.70238161,-75.72207005,40.50883878,-57.44084505
-28.74131408,39.70189424,27.01895177,13.86088249,-0.86637117,-1.37191737
3.01771090

>  <Name>
ligand

>  <RI>
0

>  <Rbt.Current_Directory>
/home/itssahil/PROJECTS/Mol_Feturizer/New_Systems/rnas/3GX2

>  <Rbt.Executable>
rbdock ($Id: //depot/dev/client3/rdock/2013.1/src/exe/rbdock.cxx#4 $)

>  <Rbt.Library>
libRbt.so (2013.1, Build901 2013/11/27)

>  <Rbt.Parameter_File>
/export/apps/rDock/src/rDock_2013.1_src/data/scripts/dock_solv.prm

>  <Rbt.Receptor>
prm/blind_docking_60.prm

>  <SCORE>
7.29484

>  <SCORE.INTER>
-0.560883

>  <SCORE.INTER.CONST>
1

>  <SCORE.INTER.POLAR>
0

>  <SCORE.INTER.ROT>
7

>  <SCORE.INTER.SOLV>
10.1345

>  <SCORE.INTER.VDW>
-12.0188

>  <SCORE.INTER.norm>
-0.0207734

>  <SCORE.INTRA>
-1.41238

>  <SCORE.INTRA.DIHEDRAL>
-5.54128

>  <SCORE.INTRA.DIHEDRAL.0>
13.9704

>  <SCORE.INTRA.POLAR>
0

>  <SCORE.INTRA.POLAR.0>
0

>  <SCORE.INTRA.REPUL>
0

>  <SCORE.INTRA.REPUL.0>
0

>  <SCORE.INTRA.SOLV>
5.34904

>  <SCORE.INTRA.SOLV.lig_0>
-70.9758

>  <SCORE.INTRA.VDW>
-1.31626

>  <SCORE.INTRA.VDW.0>
-2.70686

>  <SCORE.INTRA.norm>
-0.0523103

>  <SCORE.RESTR>
9.2681

>  <SCORE.RESTR.CAVITY>
9.2681

>  <SCORE.RESTR.norm>
0.343263

>  <SCORE.SYSTEM>
0

>  <SCORE.SYSTEM.CONST>
0

>  <SCORE.SYSTEM.DIHEDRAL>
0

>  <SCORE.SYSTEM.SOLV>
0

>  <SCORE.SYSTEM.norm>
0

>  <SCORE.heavy>
27

>  <SCORE.norm>
0.270179

>  <RMSD>
35.536

$$$$
ligand
 OpenBabel11021811473D
libRbt.so/2013.1/901 2013/11/27
 27 29  0  0  0  0  0  0  0  0999 V2000
   38.2040   28.8851   14.9952 N   0  0  0  0  0  0  0  0  0  0  0  0
   38.8662   30.0256   14.3661 C   0  0  2  0  0  0  0  0  0  0  0  0
   38.2368   31.3774   14.7093 C   0  0  0  0  0  0  0  0  0  0  0  0
   37.3879   31.4170   15.5367 O   0  0  0  0  0  0  0  0  0  0  0  0
   39.1431   29.8566   12.8575 C   0  0  0  0  0  0  0  0  0  0  0  0
   40.0047   30.9161   12.1158 C   0  0  0  0  0  0  0  0  0  0  0  0
   40.1190   30.7354   10.5787 C   0  0  2  0  0  0  0  0  0  0  0  0
   38.8276   30.4899    9.9368 N   0  0  0  0  0  0  0  0  0  0  0  0
   41.2062   29.6872   10.1882 C   0  0  0  0  0  0  0  0  0  0  0  0
   40.8961   28.1687   10.4130 C   0  0  1  0  0  0  0  0  0  0  0  0
   41.5337   27.4708   11.5237 O   0  0  0  0  0  0  0  0  0  0  0  0
   39.3981   27.7652   10.5086 C   0  0  1  0  0  0  0  0  0  0  0  0
   38.5897   27.9101    9.3336 O   0  0  0  0  0  0  0  0  0  0  0  0
   39.3889   26.4076   11.2773 C   0  0  1  0  0  0  0  0  0  0  0  0
   39.0544   25.2437   10.5601 O   0  0  0  0  0  0  0  0  0  0  0  0
   40.7124   26.4469   12.0478 C   0  0  2  0  0  0  0  0  0  0  0  0
   38.9675   32.5487   14.4264 O   0  0  0  0  0  0  0  0  0  0  0  0
   39.3968   24.0595   16.7443 N   0  0  0  0  0  0  0  0  0  0  0  0
   39.4751   23.4650   15.4797 C   0  0  0  0  0  0  0  0  0  0  0  0
   39.8473   24.2668   14.3162 N   0  0  0  0  0  0  0  0  0  0  0  0
   40.1220   25.6005   14.4605 C   0  0  0  0  0  0  0  0  0  0  0  0
   40.0391   26.1914   15.7365 C   0  0  0  0  0  0  0  0  0  0  0  0
   39.6674   25.3919   16.8954 C   0  0  0  0  0  0  0  0  0  0  0  0
   39.5816   26.0037   18.2220 N   0  0  0  0  0  0  0  0  0  0  0  0
   40.3731   27.5883   15.6026 N   0  0  0  0  0  0  0  0  0  0  0  0
   40.6548   27.8353   14.2383 C   0  0  0  0  0  0  0  0  0  0  0  0
   40.5067   26.6165   13.5154 N   0  0  0  0  0  0  0  0  0  0  0  0
  2  1  1  6  0  0  0
  2  3  1  0  0  0  0
  2  5  1  0  0  0  0
  3  4  1  0  0  0  0
  3 17  1  0  0  0  0
  5  6  1  0  0  0  0
  7  6  1  1  0  0  0
  7  8  1  0  0  0  0
  7  9  1  0  0  0  0
 10  9  1  1  0  0  0
 10 11  1  0  0  0  0
 10 12  1  0  0  0  0
 11 16  1  0  0  0  0
 12 13  1  6  0  0  0
 12 14  1  0  0  0  0
 14 15  1  6  0  0  0
 14 16  1  0  0  0  0
 16 27  1  1  0  0  0
 18 19  2  0  0  0  0
 18 23  1  0  0  0  0
 19 20  1  0  0  0  0
 20 21  2  0  0  0  0
 21 22  1  0  0  0  0
 21 27  1  0  0  0  0
 22 23  2  0  0  0  0
 22 25  1  0  0  0  0
 23 24  1  0  0  0  0
 25 26  2  0  0  0  0
 26 27  1  0  0  0  0
M  END
>  <CHROM.1>
7.76134566,-172.06674566,-174.49369188,47.24659247,74.00888636,-105.35282642
-158.33774493,39.61293067,27.93688715,13.29736291,1.42961784,-1.34108549
2.24799971

>  <Name>
ligand

>  <RI>
0

>  <Rbt.Current_Directory>
/home/itssahil/PROJECTS/Mol_Feturizer/New_Systems/rnas/3GX2

>  <Rbt.Executable>
rbdock ($Id: //depot/dev/client3/rdock/2013.1/src/exe/rbdock.cxx#4 $)

>  <Rbt.Library>
libRbt.so (2013.1, Build901 2013/11/27)

>  <Rbt.Parameter_File>
/export/apps/rDock/src/rDock_2013.1_src/data/scripts/dock_solv.prm

>  <Rbt.Receptor>
prm/blind_docking_60.prm

>  <SCORE>
14.9563

>  <SCORE.INTER>
3.95963

>  <SCORE.INTER.CONST>
1

>  <SCORE.INTER.POLAR>
0

>  <SCORE.INTER.ROT>
7

>  <SCORE.INTER.SOLV>
11.4026

>  <SCORE.INTER.VDW>
-9.42777

>  <SCORE.INTER.norm>
0.146653

>  <SCORE.INTRA>
2.64459

>  <SCORE.INTRA.DIHEDRAL>
-2.68088

>  <SCORE.INTRA.DIHEDRAL.0>
13.9704

>  <SCORE.INTRA.POLAR>
0

>  <SCORE.INTRA.POLAR.0>
0

>  <SCORE.INTRA.REPUL>
0

>  <SCORE.INTRA.REPUL.0>
0

>  <SCORE.INTRA.SOLV>
5.42839

>  <SCORE.INTRA.SOLV.lig_0>
-70.9758

>  <SCORE.INTRA.VDW>
1.27084

>  <SCORE.INTRA.VDW.0>
-2.70686

>  <SCORE.INTRA.norm>
0.0979479

>  <SCORE.RESTR>
8.35212

>  <SCORE.RESTR.CAVITY>
8.35212

>  <SCORE.RESTR.norm>
0.309338

>  <SCORE.SYSTEM>
0

>  <SCORE.SYSTEM.CONST>
0

>  <SCORE.SYSTEM.DIHEDRAL>
0

>  <SCORE.SYSTEM.SOLV>
0

>  <SCORE.SYSTEM.norm>
0

>  <SCORE.heavy>
27

>  <SCORE.norm>
0.553939

>  <RMSD>
35.546

$$$$
ligand
 OpenBabel11021811473D
libRbt.so/2013.1/901 2013/11/27
 27 29  0  0  0  0  0  0  0  0999 V2000
   37.1639   32.0064   13.9160 N   0  0  0  0  0  0  0  0  0  0  0  0
   37.2402   30.5502   14.0083 C   0  0  2  0  0  0  0  0  0  0  0  0
   37.4730   30.0280   15.4276 C   0  0  0  0  0  0  0  0  0  0  0  0
   36.5412   29.6461   16.0541 O   0  0  0  0  0  0  0  0  0  0  0  0
   38.1632   29.8872   12.9644 C   0  0  0  0  0  0  0  0  0  0  0  0
   39.6941   30.1479   13.0235 C   0  0  0  0  0  0  0  0  0  0  0  0
   40.2596   31.0910   11.9284 C   0  0  2  0  0  0  0  0  0  0  0  0
   39.4862   32.3243   11.7842 N   0  0  0  0  0  0  0  0  0  0  0  0
   40.4897   30.3505   10.5749 C   0  0  0  0  0  0  0  0  0  0  0  0
   40.6520   28.7930   10.5926 C   0  0  1  0  0  0  0  0  0  0  0  0
   41.4214   28.1716   11.6645 O   0  0  0  0  0  0  0  0  0  0  0  0
   39.3482   27.9508   10.5108 C   0  0  1  0  0  0  0  0  0  0  0  0
   38.5897   28.0079    9.2956 O   0  0  0  0  0  0  0  0  0  0  0  0
   39.7218   26.5602   11.1114 C   0  0  1  0  0  0  0  0  0  0  0  0
   39.7953   25.4601   10.2366 O   0  0  0  0  0  0  0  0  0  0  0  0
   40.9318   26.8869   11.9924 C   0  0  2  0  0  0  0  0  0  0  0  0
   38.7595   29.5658   15.7697 O   0  0  0  0  0  0  0  0  0  0  0  0
   40.1697   23.5899   16.2393 N   0  0  0  0  0  0  0  0  0  0  0  0
   40.4811   23.2261   14.9242 C   0  0  0  0  0  0  0  0  0  0  0  0
   40.6513   24.2554   13.9012 N   0  0  0  0  0  0  0  0  0  0  0  0
   40.5083   25.5778   14.2268 C   0  0  0  0  0  0  0  0  0  0  0  0
   40.1930   25.9352   15.5523 C   0  0  0  0  0  0  0  0  0  0  0  0
   40.0229   24.9088   16.5711 C   0  0  0  0  0  0  0  0  0  0  0  0
   39.6963   25.2781   17.9489 N   0  0  0  0  0  0  0  0  0  0  0  0
   40.1007   27.3734   15.6155 N   0  0  0  0  0  0  0  0  0  0  0  0
   40.3596   27.8792   14.3199 C   0  0  0  0  0  0  0  0  0  0  0  0
   40.6161   26.7832   13.4465 N   0  0  0  0  0  0  0  0  0  0  0  0
  2  1  1  1  0  0  0
  2  3  1  0  0  0  0
  2  5  1  0  0  0  0
  3  4  1  0  0  0  0
  3 17  1  0  0  0  0
  5  6  1  0  0  0  0
  7  6  1  1  0  0  0
  7  8  1  0  0  0  0
  7  9  1  0  0  0  0
 10  9  1  1  0  0  0
 10 11  1  0  0  0  0
 10 12  1  0  0  0  0
 11 16  1  0  0  0  0
 12 13  1  6  0  0  0
 12 14  1  0  0  0  0
 14 15  1  6  0  0  0
 14 16  1  0  0  0  0
 16 27  1  1  0  0  0
 18 19  2  0  0  0  0
 18 23  1  0  0  0  0
 19 20  1  0  0  0  0
 20 21  2  0  0  0  0
 21 22  1  0  0  0  0
 21 27  1  0  0  0  0
 22 23  2  0  0  0  0
 22 25  1  0  0  0  0
 23 24  1  0  0  0  0
 25 26  2  0  0  0  0
 26 27  1  0  0  0  0
M  END
>  <CHROM.1>
98.46150274,66.30610257,-106.35420186,48.29648857,-21.88771728,-39.74652139
-158.91275405,39.54419197,27.91434179,13.42205855,2.00682299,1.13416521,-0.95166279

>  <Name>
ligand

>  <RI>
0

>  <Rbt.Current_Directory>
/home/itssahil/PROJECTS/Mol_Feturizer/New_Systems/rnas/3GX2

>  <Rbt.Executable>
rbdock ($Id: //depot/dev/client3/rdock/2013.1/src/exe/rbdock.cxx#4 $)

>  <Rbt.Library>
libRbt.so (2013.1, Build901 2013/11/27)

>  <Rbt.Parameter_File>
/export/apps/rDock/src/rDock_2013.1_src/data/scripts/dock_solv.prm

>  <Rbt.Receptor>
prm/blind_docking_60.prm

>  <SCORE>
19.3496

>  <SCORE.INTER>
4.11963

>  <SCORE.INTER.CONST>
1

>  <SCORE.INTER.POLAR>
0

>  <SCORE.INTER.ROT>
7

>  <SCORE.INTER.SOLV>
14.159

>  <SCORE.INTER.VDW>
-10.2399

>  <SCORE.INTER.norm>
0.152579

>  <SCORE.INTRA>
5.36894

>  <SCORE.INTRA.DIHEDRAL>
1.91678

>  <SCORE.INTRA.DIHEDRAL.0>
13.9704

>  <SCORE.INTRA.POLAR>
0

>  <SCORE.INTRA.POLAR.0>
0

>  <SCORE.INTRA.REPUL>
0

>  <SCORE.INTRA.REPUL.0>
0

>  <SCORE.INTRA.SOLV>
3.58096

>  <SCORE.INTRA.SOLV.lig_0>
-70.9758

>  <SCORE.INTRA.VDW>
2.62007

>  <SCORE.INTRA.VDW.0>
-2.70686

>  <SCORE.INTRA.norm>
0.19885

>  <SCORE.RESTR>
9.86102

>  <SCORE.RESTR.CAVITY>
9.86102

>  <SCORE.RESTR.norm>
0.365223

>  <SCORE.SYSTEM>
0

>  <SCORE.SYSTEM.CONST>
0

>  <SCORE.SYSTEM.DIHEDRAL>
0

>  <SCORE.SYSTEM.SOLV>
0

>  <SCORE.SYSTEM.norm>
0

>  <SCORE.heavy>
27

>  <SCORE.norm>
0.716652

>  <RMSD>
35.559

$$$$
ligand
 OpenBabel11021811473D
libRbt.so/2013.1/901 2013/11/27
 27 29  0  0  0  0  0  0  0  0999 V2000
   38.7744   32.8122   14.4930 N   0  0  0  0  0  0  0  0  0  0  0  0
   38.1502   31.6086   13.9482 C   0  0  2  0  0  0  0  0  0  0  0  0
   38.3466   30.3607   14.8115 C   0  0  0  0  0  0  0  0  0  0  0  0
   39.4507   29.9836   15.0251 O   0  0  0  0  0  0  0  0  0  0  0  0
   38.4358   31.3567   12.4528 C   0  0  0  0  0  0  0  0  0  0  0  0
   39.6868   30.5308   12.0428 C   0  0  0  0  0  0  0  0  0  0  0  0
   40.0965   30.6253   10.5489 C   0  0  2  0  0  0  0  0  0  0  0  0
   38.9555   30.5295    9.6385 N   0  0  0  0  0  0  0  0  0  0  0  0
   41.2502   29.6383   10.1911 C   0  0  0  0  0  0  0  0  0  0  0  0
   41.0052   28.1027   10.3765 C   0  0  1  0  0  0  0  0  0  0  0  0
   41.4581   27.4544   11.6019 O   0  0  0  0  0  0  0  0  0  0  0  0
   39.5483   27.5963   10.1840 C   0  0  1  0  0  0  0  0  0  0  0  0
   38.9783   27.6809    8.8714 O   0  0  0  0  0  0  0  0  0  0  0  0
   39.4801   26.2439   10.9589 C   0  0  1  0  0  0  0  0  0  0  0  0
   39.3721   25.0573   10.2098 O   0  0  0  0  0  0  0  0  0  0  0  0
   40.6209   26.3776   11.9725 C   0  0  2  0  0  0  0  0  0  0  0  0
   37.3166   29.9901   15.6988 O   0  0  0  0  0  0  0  0  0  0  0  0
   40.2928   24.2165   16.9434 N   0  0  0  0  0  0  0  0  0  0  0  0
   40.9203   23.6709   15.8176 C   0  0  0  0  0  0  0  0  0  0  0  0
   40.9094   24.3976   14.5499 N   0  0  0  0  0  0  0  0  0  0  0  0
   40.2872   25.6142   14.4608 C   0  0  0  0  0  0  0  0  0  0  0  0
   39.6565   26.1552   15.5982 C   0  0  0  0  0  0  0  0  0  0  0  0
   39.6670   25.4301   16.8610 C   0  0  0  0  0  0  0  0  0  0  0  0
   39.0131   25.9910   18.0439 N   0  0  0  0  0  0  0  0  0  0  0  0
   39.0868   27.4278   15.2280 N   0  0  0  0  0  0  0  0  0  0  0  0
   39.3760   27.6481   13.8608 C   0  0  0  0  0  0  0  0  0  0  0  0
   40.1203   26.5374   13.3685 N   0  0  0  0  0  0  0  0  0  0  0  0
  2  1  1  1  0  0  0
  2  3  1  0  0  0  0
  2  5  1  0  0  0  0
  3  4  1  0  0  0  0
  3 17  1  0  0  0  0
  5  6  1  0  0  0  0
  7  6  1  1  0  0  0
  7  8  1  0  0  0  0
  7  9  1  0  0  0  0
 10  9  1  1  0  0  0
 10 11  1  0  0  0  0
 10 12  1  0  0  0  0
 11 16  1  0  0  0  0
 12 13  1  6  0  0  0
 12 14  1  0  0  0  0
 14 15  1  6  0  0  0
 14 16  1  0  0  0  0
 16 27  1  1  0  0  0
 18 19  2  0  0  0  0
 18 23  1  0  0  0  0
 19 20  1  0  0  0  0
 20 21  2  0  0  0  0
 21 22  1  0  0  0  0
 21 27  1  0  0  0  0
 22 23  2  0  0  0  0
 22 25  1  0  0  0  0
 23 24  1  0  0  0  0
 25 26  2  0  0  0  0
 26 27  1  0  0  0  0
M  END
>  <CHROM.1>
-60.20324819,89.09319336,-165.16493461,-43.91025534,60.93486598,-96.41498026
-122.55202112,39.62182742,27.93819521,13.19486479,1.82070045,1.26973899,-1.04358028

>  <Name>
ligand

>  <RI>
0

>  <Rbt.Current_Directory>
/home/itssahil/PROJECTS/Mol_Feturizer/New_Systems/rnas/3GX2

>  <Rbt.Executable>
rbdock ($Id: //depot/dev/client3/rdock/2013.1/src/exe/rbdock.cxx#4 $)

>  <Rbt.Library>
libRbt.so (2013.1, Build901 2013/11/27)

>  <Rbt.Parameter_File>
/export/apps/rDock/src/rDock_2013.1_src/data/scripts/dock_solv.prm

>  <Rbt.Receptor>
prm/blind_docking_60.prm

>  <SCORE>
15.013

>  <SCORE.INTER>
4.73041

>  <SCORE.INTER.CONST>
1

>  <SCORE.INTER.POLAR>
0

>  <SCORE.INTER.ROT>
7

>  <SCORE.INTER.SOLV>
12.3433

>  <SCORE.INTER.VDW>
-9.22749

>  <SCORE.INTER.norm>
0.1752

>  <SCORE.INTRA>
1.23414

>  <SCORE.INTRA.DIHEDRAL>
-1.8294

>  <SCORE.INTRA.DIHEDRAL.0>
13.9704

>  <SCORE.INTRA.POLAR>
0

>  <SCORE.INTRA.POLAR.0>
0

>  <SCORE.INTRA.REPUL>
0

>  <SCORE.INTRA.REPUL.0>
0

>  <SCORE.INTRA.SOLV>
3.43477

>  <SCORE.INTRA.SOLV.lig_0>
-70.9758

>  <SCORE.INTRA.VDW>
0.431458

>  <SCORE.INTRA.VDW.0>
-2.70686

>  <SCORE.INTRA.norm>
0.045709

>  <SCORE.RESTR>
9.04848

>  <SCORE.RESTR.CAVITY>
9.04848

>  <SCORE.RESTR.norm>
0.335129

>  <SCORE.SYSTEM>
0

>  <SCORE.SYSTEM.CONST>
0

>  <SCORE.SYSTEM.DIHEDRAL>
0

>  <SCORE.SYSTEM.SOLV>
0

>  <SCORE.SYSTEM.norm>
0

>  <SCORE.heavy>
27

>  <SCORE.norm>
0.556038

>  <RMSD>
35.600

$$$$
ligand
 OpenBabel11021811473D
libRbt.so/2013.1/901 2013/11/27
 27 29  0  0  0  0  0  0  0  0999 V2000
   40.9920   23.5123   13.6350 N   0  0  0  0  0  0  0  0  0  0  0  0
   40.6522   24.4603   14.6936 C   0  0  2  0  0  0  0  0  0  0  0  0
   40.5070   23.8226   16.0769 C   0  0  0  0  0  0  0  0  0  0  0  0
   40.4128   24.5307   17.0237 O   0  0  0  0  0  0  0  0  0  0  0  0
   39.4945   25.4208   14.3494 C   0  0  0  0  0  0  0  0  0  0  0  0
   39.4450   26.8256   15.0122 C   0  0  0  0  0  0  0  0  0  0  0  0
   38.0904   27.5749   14.9025 C   0  0  2  0  0  0  0  0  0  0  0  0
   37.5901   27.6488   13.5299 N   0  0  0  0  0  0  0  0  0  0  0  0
   38.1245   28.9608   15.6175 C   0  0  0  0  0  0  0  0  0  0  0  0
   38.8913   30.1394   14.9280 C   0  0  1  0  0  0  0  0  0  0  0  0
   39.9959   29.8359   14.0253 O   0  0  0  0  0  0  0  0  0  0  0  0
   38.0319   31.1790   14.1556 C   0  0  1  0  0  0  0  0  0  0  0  0
   37.1392   32.0053   14.9142 O   0  0  0  0  0  0  0  0  0  0  0  0
   39.0118   31.8463   13.1414 C   0  0  1  0  0  0  0  0  0  0  0  0
   39.3825   33.1857   13.3635 O   0  0  0  0  0  0  0  0  0  0  0  0
   40.1109   30.7901   12.9890 C   0  0  2  0  0  0  0  0  0  0  0  0
   40.0135   22.5052   16.1597 O   0  0  0  0  0  0  0  0  0  0  0  0
   39.6529   26.1414   10.2200 N   0  0  0  0  0  0  0  0  0  0  0  0
   39.6162   26.3124   11.6087 C   0  0  0  0  0  0  0  0  0  0  0  0
   39.7574   27.6475   12.1853 N   0  0  0  0  0  0  0  0  0  0  0  0
   39.9242   28.7343   11.3690 C   0  0  0  0  0  0  0  0  0  0  0  0
   39.9619   28.5531    9.9726 C   0  0  0  0  0  0  0  0  0  0  0  0
   39.8218   27.2221    9.3987 C   0  0  0  0  0  0  0  0  0  0  0  0
   39.8598   27.0320    7.9482 N   0  0  0  0  0  0  0  0  0  0  0  0
   40.1469   29.8464    9.3609 N   0  0  0  0  0  0  0  0  0  0  0  0
   40.2230   30.8064   10.3973 C   0  0  0  0  0  0  0  0  0  0  0  0
   40.0852   30.1377   11.6478 N   0  0  0  0  0  0  0  0  0  0  0  0
  2  1  1  6  0  0  0
  2  3  1  0  0  0  0
  2  5  1  0  0  0  0
  3  4  1  0  0  0  0
  3 17  1  0  0  0  0
  5  6  1  0  0  0  0
  7  6  1  6  0  0  0
  7  8  1  0  0  0  0
  7  9  1  0  0  0  0
 10  9  1  6  0  0  0
 10 11  1  0  0  0  0
 10 12  1  0  0  0  0
 11 16  1  0  0  0  0
 12 13  1  1  0  0  0
 12 14  1  0  0  0  0
 14 15  1  1  0  0  0
 14 16  1  0  0  0  0
 16 27  1  6  0  0  0
 18 19  2  0  0  0  0
 18 23  1  0  0  0  0
 19 20  1  0  0  0  0
 20 21  2  0  0  0  0
 21 22  1  0  0  0  0
 21 27  1  0  0  0  0
 22 23  2  0  0  0  0
 22 25  1  0  0  0  0
 23 24  1  0  0  0  0
 25 26  2  0  0  0  0
 26 27  1  0  0  0  0
M  END
>  <CHROM.1>
169.90179094,-151.86046936,-164.98433849,-51.85053458,74.80671598,-26.89032024
1.90677712,39.50554637,28.01756712,13.15749721,-1.09046757,1.31120136,-0.88272677

>  <Name>
ligand

>  <RI>
0

>  <Rbt.Current_Directory>
/home/itssahil/PROJECTS/Mol_Feturizer/New_Systems/rnas/3GX2

>  <Rbt.Executable>
rbdock ($Id: //depot/dev/client3/rdock/2013.1/src/exe/rbdock.cxx#4 $)

>  <Rbt.Library>
libRbt.so (2013.1, Build901 2013/11/27)

>  <Rbt.Parameter_File>
/export/apps/rDock/src/rDock_2013.1_src/data/scripts/dock_solv.prm

>  <Rbt.Receptor>
prm/blind_docking_60.prm

>  <SCORE>
15.7628

>  <SCORE.INTER>
5.49683

>  <SCORE.INTER.CONST>
1

>  <SCORE.INTER.POLAR>
0

>  <SCORE.INTER.ROT>
7

>  <SCORE.INTER.SOLV>
16.7242

>  <SCORE.INTER.VDW>
-10.1769

>  <SCORE.INTER.norm>
0.203586

>  <SCORE.INTRA>
0.851647

>  <SCORE.INTRA.DIHEDRAL>
-1.95098

>  <SCORE.INTRA.DIHEDRAL.0>
13.9704

>  <SCORE.INTRA.POLAR>
0

>  <SCORE.INTRA.POLAR.0>
0

>  <SCORE.INTRA.REPUL>
0

>  <SCORE.INTRA.REPUL.0>
0

>  <SCORE.INTRA.SOLV>
3.75672

>  <SCORE.INTRA.SOLV.lig_0>
-70.9758

>  <SCORE.INTRA.VDW>
-0.0512192

>  <SCORE.INTRA.VDW.0>
-2.70686

>  <SCORE.INTRA.norm>
0.0315425

>  <SCORE.RESTR>
9.41433

>  <SCORE.RESTR.CAVITY>
9.41433

>  <SCORE.RESTR.norm>
0.348679

>  <SCORE.SYSTEM>
0

>  <SCORE.SYSTEM.CONST>
0

>  <SCORE.SYSTEM.DIHEDRAL>
0

>  <SCORE.SYSTEM.SOLV>
0

>  <SCORE.SYSTEM.norm>
0

>  <SCORE.heavy>
27

>  <SCORE.norm>
0.583808

>  <RMSD>
35.638

$$$$
ligand
 OpenBabel11021811473D
libRbt.so/2013.1/901 2013/11/27
 27 29  0  0  0  0  0  0  0  0999 V2000
   38.5288   22.7403   16.2022 N   0  0  0  0  0  0  0  0  0  0  0  0
   39.6821   23.6263   16.3443 C   0  0  2  0  0  0  0  0  0  0  0  0
   39.4027   24.8836   17.1704 C   0  0  0  0  0  0  0  0  0  0  0  0
   40.3214   25.5159   17.5740 O   0  0  0  0  0  0  0  0  0  0  0  0
   40.4294   23.9253   15.0278 C   0  0  0  0  0  0  0  0  0  0  0  0
   39.7261   24.7628   13.9236 C   0  0  0  0  0  0  0  0  0  0  0  0
   40.1872   26.2396   13.8018 C   0  0  2  0  0  0  0  0  0  0  0  0
   41.6110   26.3677   13.4913 N   0  0  0  0  0  0  0  0  0  0  0  0
   39.7483   27.0966   15.0291 C   0  0  0  0  0  0  0  0  0  0  0  0
   39.6291   28.6482   14.8535 C   0  0  1  0  0  0  0  0  0  0  0  0
   40.5746   29.3389   13.9839 O   0  0  0  0  0  0  0  0  0  0  0  0
   38.2387   29.2021   14.4343 C   0  0  1  0  0  0  0  0  0  0  0  0
   37.1582   29.0742   15.3678 O   0  0  0  0  0  0  0  0  0  0  0  0
   38.5300   30.5936   13.7917 C   0  0  1  0  0  0  0  0  0  0  0  0
   38.1274   31.7443   14.4952 O   0  0  0  0  0  0  0  0  0  0  0  0
   39.9939   30.4658   13.3587 C   0  0  2  0  0  0  0  0  0  0  0  0
   38.1509   25.5150   17.0284 O   0  0  0  0  0  0  0  0  0  0  0  0
   39.8992   27.3134    8.9382 N   0  0  0  0  0  0  0  0  0  0  0  0
   39.6855   26.9249   10.2657 C   0  0  0  0  0  0  0  0  0  0  0  0
   39.7502   27.9159   11.3374 N   0  0  0  0  0  0  0  0  0  0  0  0
   40.0181   29.2268   11.0457 C   0  0  0  0  0  0  0  0  0  0  0  0
   40.2337   29.6090    9.7072 C   0  0  0  0  0  0  0  0  0  0  0  0
   40.1699   28.6207    8.6397 C   0  0  0  0  0  0  0  0  0  0  0  0
   40.3926   29.0160    7.2485 N   0  0  0  0  0  0  0  0  0  0  0  0
   40.4933   31.0278    9.6859 N   0  0  0  0  0  0  0  0  0  0  0  0
   40.4353   31.4967   11.0195 C   0  0  0  0  0  0  0  0  0  0  0  0
   40.1403   30.3969   11.8759 N   0  0  0  0  0  0  0  0  0  0  0  0
  2  1  1  6  0  0  0
  2  3  1  0  0  0  0
  2  5  1  0  0  0  0
  3  4  1  0  0  0  0
  3 17  1  0  0  0  0
  5  6  1  0  0  0  0
  7  6  1  1  0  0  0
  7  8  1  0  0  0  0
  7  9  1  0  0  0  0
 10  9  1  6  0  0  0
 10 11  1  0  0  0  0
 10 12  1  0  0  0  0
 11 16  1  0  0  0  0
 12 13  1  1  0  0  0
 12 14  1  0  0  0  0
 14 15  1  1  0  0  0
 14 16  1  0  0  0  0
 16 27  1  6  0  0  0
 18 19  2  0  0  0  0
 18 23  1  0  0  0  0
 19 20  1  0  0  0  0
 20 21  2  0  0  0  0
 21 22  1  0  0  0  0
 21 27  1  0  0  0  0
 22 23  2  0  0  0  0
 22 25  1  0  0  0  0
 23 24  1  0  0  0  0
 25 26  2  0  0  0  0
 26 27  1  0  0  0  0
M  END
>  <CHROM.1>
164.55562506,67.39776403,103.40387524,60.28041521,-156.96548373,-35.64550197
39.21144483,39.64841856,27.80283754,13.29060031,-1.88000929,1.28548080,-0.60456092

>  <Name>
ligand

>  <RI>
0

>  <Rbt.Current_Directory>
/home/itssahil/PROJECTS/Mol_Feturizer/New_Systems/rnas/3GX2

>  <Rbt.Executable>
rbdock ($Id: //depot/dev/client3/rdock/2013.1/src/exe/rbdock.cxx#4 $)

>  <Rbt.Library>
libRbt.so (2013.1, Build901 2013/11/27)

>  <Rbt.Parameter_File>
/export/apps/rDock/src/rDock_2013.1_src/data/scripts/dock_solv.prm

>  <Rbt.Receptor>
prm/blind_docking_60.prm

>  <SCORE>
12.256

>  <SCORE.INTER>
3.81343

>  <SCORE.INTER.CONST>
1

>  <SCORE.INTER.POLAR>
0

>  <SCORE.INTER.ROT>
7

>  <SCORE.INTER.SOLV>
12.4687

>  <SCORE.INTER.VDW>
-9.88062

>  <SCORE.INTER.norm>
0.141238

>  <SCORE.INTRA>
0.485062

>  <SCORE.INTRA.DIHEDRAL>
-0.205761

>  <SCORE.INTRA.DIHEDRAL.0>
13.9704

>  <SCORE.INTRA.POLAR>
0

>  <SCORE.INTRA.POLAR.0>
0

>  <SCORE.INTRA.REPUL>
0

>  <SCORE.INTRA.REPUL.0>
0

>  <SCORE.INTRA.SOLV>
3.22255

>  <SCORE.INTRA.SOLV.lig_0>
-70.9758

>  <SCORE.INTRA.VDW>
-1.02333

>  <SCORE.INTRA.VDW.0>
-2.70686

>  <SCORE.INTRA.norm>
0.0179652

>  <SCORE.RESTR>
7.95748

>  <SCORE.RESTR.CAVITY>
7.95748

>  <SCORE.RESTR.norm>
0.294722

>  <SCORE.SYSTEM>
0

>  <SCORE.SYSTEM.CONST>
0

>  <SCORE.SYSTEM.DIHEDRAL>
0

>  <SCORE.SYSTEM.SOLV>
0

>  <SCORE.SYSTEM.norm>
0

>  <SCORE.heavy>
27

>  <SCORE.norm>
0.453925

>  <RMSD>
35.651

$$$$
ligand
 OpenBabel11021811473D
libRbt.so/2013.1/901 2013/11/27
 27 29  0  0  0  0  0  0  0  0999 V2000
   36.6095   28.4597   14.0009 N   0  0  0  0  0  0  0  0  0  0  0  0
   37.8749   29.1902   13.9898 C   0  0  2  0  0  0  0  0  0  0  0  0
   37.8966   30.4109   14.9121 C   0  0  0  0  0  0  0  0  0  0  0  0
   38.2157   30.2635   16.0450 O   0  0  0  0  0  0  0  0  0  0  0  0
   38.4324   29.4896   12.5824 C   0  0  0  0  0  0  0  0  0  0  0  0
   39.7709   30.2663   12.4405 C   0  0  0  0  0  0  0  0  0  0  0  0
   40.0758   30.8306   11.0273 C   0  0  2  0  0  0  0  0  0  0  0  0
   38.8698   31.2249   10.2993 N   0  0  0  0  0  0  0  0  0  0  0  0
   41.0069   29.8873   10.2048 C   0  0  0  0  0  0  0  0  0  0  0  0
   40.8798   28.3408   10.4162 C   0  0  1  0  0  0  0  0  0  0  0  0
   41.5429   27.7238   11.5594 O   0  0  0  0  0  0  0  0  0  0  0  0
   39.4419   27.7510   10.4356 C   0  0  1  0  0  0  0  0  0  0  0  0
   38.6828   27.7983    9.2204 O   0  0  0  0  0  0  0  0  0  0  0  0
   39.5649   26.3996   11.2053 C   0  0  1  0  0  0  0  0  0  0  0  0
   39.4171   25.2061   10.4740 O   0  0  0  0  0  0  0  0  0  0  0  0
   40.8317   26.6019   12.0426 C   0  0  2  0  0  0  0  0  0  0  0  0
   38.0188   31.6888   14.3308 O   0  0  0  0  0  0  0  0  0  0  0  0
   39.7707   24.0343   16.7083 N   0  0  0  0  0  0  0  0  0  0  0  0
   40.0155   23.4586   15.4563 C   0  0  0  0  0  0  0  0  0  0  0  0
   40.2847   24.3100   14.2997 N   0  0  0  0  0  0  0  0  0  0  0  0
   40.2999   25.6723   14.4381 C   0  0  0  0  0  0  0  0  0  0  0  0
   40.0506   26.2435   15.7013 C   0  0  0  0  0  0  0  0  0  0  0  0
   39.7816   25.3944   16.8534 C   0  0  0  0  0  0  0  0  0  0  0  0
   39.5234   25.9860   18.1667 N   0  0  0  0  0  0  0  0  0  0  0  0
   40.1247   27.6775   15.5636 N   0  0  0  0  0  0  0  0  0  0  0  0
   40.4174   27.9660   14.2099 C   0  0  0  0  0  0  0  0  0  0  0  0
   40.5315   26.7375   13.4974 N   0  0  0  0  0  0  0  0  0  0  0  0
  2  1  1  6  0  0  0
  2  3  1  0  0  0  0
  2  5  1  0  0  0  0
  3  4  1  0  0  0  0
  3 17  1  0  0  0  0
  5  6  1  0  0  0  0
  7  6  1  1  0  0  0
  7  8  1  0  0  0  0
  7  9  1  0  0  0  0
 10  9  1  1  0  0  0
 10 11  1  0  0  0  0
 10 12  1  0  0  0  0
 11 16  1  0  0  0  0
 12 13  1  6  0  0  0
 12 14  1  0  0  0  0
 14 15  1  6  0  0  0
 14 16  1  0  0  0  0
 16 27  1  1  0  0  0
 18 19  2  0  0  0  0
 18 23  1  0  0  0  0
 19 20  1  0  0  0  0
 20 21  2  0  0  0  0
 21 22  1  0  0  0  0
 21 27  1  0  0  0  0
 22 23  2  0  0  0  0
 22 25  1  0  0  0  0
 23 24  1  0  0  0  0
 25 26  2  0  0  0  0
 26 27  1  0  0  0  0
M  END
>  <CHROM.1>
87.73053783,179.77656240,-165.24255708,32.62938103,33.52244320,-81.11524114
-154.79141769,39.52871752,27.80231843,13.28014384,1.72116932,1.20991130,-1.01074997

>  <Name>
ligand

>  <RI>
0

>  <Rbt.Current_Directory>
/home/itssahil/PROJECTS/Mol_Feturizer/New_Systems/rnas/3GX2

>  <Rbt.Executable>
rbdock ($Id: //depot/dev/client3/rdock/2013.1/src/exe/rbdock.cxx#4 $)

>  <Rbt.Library>
libRbt.so (2013.1, Build901 2013/11/27)

>  <Rbt.Parameter_File>
/export/apps/rDock/src/rDock_2013.1_src/data/scripts/dock_solv.prm

>  <Rbt.Receptor>
prm/blind_docking_60.prm

>  <SCORE>
14.7257

>  <SCORE.INTER>
4.00683

>  <SCORE.INTER.CONST>
1

>  <SCORE.INTER.POLAR>
0

>  <SCORE.INTER.ROT>
7

>  <SCORE.INTER.SOLV>
10.2475

>  <SCORE.INTER.VDW>
-9.01127

>  <SCORE.INTER.norm>
0.148401

>  <SCORE.INTRA>
1.49823

>  <SCORE.INTRA.DIHEDRAL>
-2.64682

>  <SCORE.INTRA.DIHEDRAL.0>
13.9704

>  <SCORE.INTRA.POLAR>
0

>  <SCORE.INTRA.POLAR.0>
0

>  <SCORE.INTRA.REPUL>
0

>  <SCORE.INTRA.REPUL.0>
0

>  <SCORE.INTRA.SOLV>
2.59499

>  <SCORE.INTRA.SOLV.lig_0>
-70.9758

>  <SCORE.INTRA.VDW>
1.52414

>  <SCORE.INTRA.VDW.0>
-2.70686

>  <SCORE.INTRA.norm>
0.0554899

>  <SCORE.RESTR>
9.22062

>  <SCORE.RESTR.CAVITY>
9.22062

>  <SCORE.RESTR.norm>
0.341504

>  <SCORE.SYSTEM>
0

>  <SCORE.SYSTEM.CONST>
0

>  <SCORE.SYSTEM.DIHEDRAL>
0

>  <SCORE.SYSTEM.SOLV>
0

>  <SCORE.SYSTEM.norm>
0

>  <SCORE.heavy>
27

>  <SCORE.norm>
0.545395

>  <RMSD>
35.680

$$$$
ligand
 OpenBabel11021811473D
libRbt.so/2013.1/901 2013/11/27
 27 29  0  0  0  0  0  0  0  0999 V2000
   38.1042   28.7018   15.0318 N   0  0  0  0  0  0  0  0  0  0  0  0
   38.0341   30.1510   14.8593 C   0  0  2  0  0  0  0  0  0  0  0  0
   36.8577   30.6191   14.0000 C   0  0  0  0  0  0  0  0  0  0  0  0
   35.8559   29.9843   14.0112 O   0  0  0  0  0  0  0  0  0  0  0  0
   39.3692   30.8171   14.4657 C   0  0  0  0  0  0  0  0  0  0  0  0
   40.1522   30.2878   13.2320 C   0  0  0  0  0  0  0  0  0  0  0  0
   39.7596   30.9119   11.8664 C   0  0  2  0  0  0  0  0  0  0  0  0
   38.3119   30.9954   11.6737 N   0  0  0  0  0  0  0  0  0  0  0  0
   40.4980   30.2303   10.6734 C   0  0  0  0  0  0  0  0  0  0  0  0
   40.6259   28.6695   10.6664 C   0  0  1  0  0  0  0  0  0  0  0  0
   41.4051   28.0164   11.7121 O   0  0  0  0  0  0  0  0  0  0  0  0
   39.3022   27.8573   10.6028 C   0  0  1  0  0  0  0  0  0  0  0  0
   38.5182   27.9480    9.4060 O   0  0  0  0  0  0  0  0  0  0  0  0
   39.6582   26.4505   11.1759 C   0  0  1  0  0  0  0  0  0  0  0  0
   39.6875   25.3615   10.2849 O   0  0  0  0  0  0  0  0  0  0  0  0
   40.8945   26.7382   12.0335 C   0  0  2  0  0  0  0  0  0  0  0  0
   36.8005   31.9757   13.6230 O   0  0  0  0  0  0  0  0  0  0  0  0
   40.0772   23.3984   16.2365 N   0  0  0  0  0  0  0  0  0  0  0  0
   40.3391   23.0462   14.9075 C   0  0  0  0  0  0  0  0  0  0  0  0
   40.5338   24.0861   13.8998 N   0  0  0  0  0  0  0  0  0  0  0  0
   40.4625   25.4072   14.2533 C   0  0  0  0  0  0  0  0  0  0  0  0
   40.1967   25.7530   15.5926 C   0  0  0  0  0  0  0  0  0  0  0  0
   40.0019   24.7161   16.5962 C   0  0  0  0  0  0  0  0  0  0  0  0
   39.7266   25.0734   17.9883 N   0  0  0  0  0  0  0  0  0  0  0  0
   40.1751   27.1925   15.6846 N   0  0  0  0  0  0  0  0  0  0  0  0
   40.4267   27.7108   14.3925 C   0  0  0  0  0  0  0  0  0  0  0  0
   40.6093   26.6211   13.4929 N   0  0  0  0  0  0  0  0  0  0  0  0
  2  1  1  6  0  0  0
  2  3  1  0  0  0  0
  2  5  1  0  0  0  0
  3  4  1  0  0  0  0
  3 17  1  0  0  0  0
  5  6  1  0  0  0  0
  7  6  1  1  0  0  0
  7  8  1  0  0  0  0
  7  9  1  0  0  0  0
 10  9  1  1  0  0  0
 10 11  1  0  0  0  0
 10 12  1  0  0  0  0
 11 16  1  0  0  0  0
 12 13  1  6  0  0  0
 12 14  1  0  0  0  0
 14 15  1  6  0  0  0
 14 16  1  0  0  0  0
 16 27  1  1  0  0  0
 18 19  2  0  0  0  0
 18 23  1  0  0  0  0
 19 20  1  0  0  0  0
 20 21  2  0  0  0  0
 21 22  1  0  0  0  0
 21 27  1  0  0  0  0
 22 23  2  0  0  0  0
 22 25  1  0  0  0  0
 23 24  1  0  0  0  0
 25 26  2  0  0  0  0
 26 27  1  0  0  0  0
M  END
>  <CHROM.1>
31.01542010,53.31022482,87.50431617,-45.42143952,42.70746102,-64.34854183
-160.42299311,39.45013922,27.80092180,13.35424847,2.19925562,1.10283198,-1.05134284

>  <Name>
ligand

>  <RI>
0

>  <Rbt.Current_Directory>
/home/itssahil/PROJECTS/Mol_Feturizer/New_Systems/rnas/3GX2

>  <Rbt.Executable>
rbdock ($Id: //depot/dev/client3/rdock/2013.1/src/exe/rbdock.cxx#4 $)

>  <Rbt.Library>
libRbt.so (2013.1, Build901 2013/11/27)

>  <Rbt.Parameter_File>
/export/apps/rDock/src/rDock_2013.1_src/data/scripts/dock_solv.prm

>  <Rbt.Receptor>
prm/blind_docking_60.prm

>  <SCORE>
17.9685

>  <SCORE.INTER>
5.62227

>  <SCORE.INTER.CONST>
1

>  <SCORE.INTER.POLAR>
0

>  <SCORE.INTER.ROT>
7

>  <SCORE.INTER.SOLV>
13.4014

>  <SCORE.INTER.VDW>
-8.98563

>  <SCORE.INTER.norm>
0.208232

>  <SCORE.INTRA>
2.81377

>  <SCORE.INTRA.DIHEDRAL>
-4.49448

>  <SCORE.INTRA.DIHEDRAL.0>
13.9704

>  <SCORE.INTRA.POLAR>
0

>  <SCORE.INTRA.POLAR.0>
0

>  <SCORE.INTRA.REPUL>
0

>  <SCORE.INTRA.REPUL.0>
0

>  <SCORE.INTRA.SOLV>
7.90665

>  <SCORE.INTRA.SOLV.lig_0>
-70.9758

>  <SCORE.INTRA.VDW>
1.10768

>  <SCORE.INTRA.VDW.0>
-2.70686

>  <SCORE.INTRA.norm>
0.104214

>  <SCORE.RESTR>
9.53249

>  <SCORE.RESTR.CAVITY>
9.53249

>  <SCORE.RESTR.norm>
0.353055

>  <SCORE.SYSTEM>
0

>  <SCORE.SYSTEM.CONST>
0

>  <SCORE.SYSTEM.DIHEDRAL>
0

>  <SCORE.SYSTEM.SOLV>
0

>  <SCORE.SYSTEM.norm>
0

>  <SCORE.heavy>
27

>  <SCORE.norm>
0.665501

>  <RMSD>
35.682

$$$$
ligand
 OpenBabel11021811473D
libRbt.so/2013.1/901 2013/11/27
 27 29  0  0  0  0  0  0  0  0999 V2000
   38.2091   22.9866   15.8927 N   0  0  0  0  0  0  0  0  0  0  0  0
   39.4898   23.4985   16.3752 C   0  0  2  0  0  0  0  0  0  0  0  0
   39.3668   24.7142   17.2961 C   0  0  0  0  0  0  0  0  0  0  0  0
   40.3540   25.2875   17.6178 O   0  0  0  0  0  0  0  0  0  0  0  0
   40.5636   23.6782   15.2817 C   0  0  0  0  0  0  0  0  0  0  0  0
   40.1678   24.3136   13.9198 C   0  0  0  0  0  0  0  0  0  0  0  0
   40.2980   25.8576   13.8335 C   0  0  2  0  0  0  0  0  0  0  0  0
   41.6477   26.2962   13.4783 N   0  0  0  0  0  0  0  0  0  0  0  0
   39.7377   26.5678   15.1042 C   0  0  0  0  0  0  0  0  0  0  0  0
   39.5834   28.1261   15.0833 C   0  0  1  0  0  0  0  0  0  0  0  0
   40.5184   28.9215   14.2957 O   0  0  0  0  0  0  0  0  0  0  0  0
   38.1833   28.6876   14.7089 C   0  0  1  0  0  0  0  0  0  0  0  0
   37.0998   28.4426   15.6150 O   0  0  0  0  0  0  0  0  0  0  0  0
   38.4464   30.1426   14.2111 C   0  0  1  0  0  0  0  0  0  0  0  0
   38.0122   31.2077   15.0222 O   0  0  0  0  0  0  0  0  0  0  0  0
   39.9158   30.0918   13.7809 C   0  0  2  0  0  0  0  0  0  0  0  0
   38.1358   25.3986   17.3427 O   0  0  0  0  0  0  0  0  0  0  0  0
   39.9684   27.3893    9.0713 N   0  0  0  0  0  0  0  0  0  0  0  0
   39.7614   26.8641   10.3520 C   0  0  0  0  0  0  0  0  0  0  0  0
   39.7817   27.7464   11.5165 N   0  0  0  0  0  0  0  0  0  0  0  0
   40.0014   29.0886   11.3577 C   0  0  0  0  0  0  0  0  0  0  0  0
   40.2107   29.6087   10.0655 C   0  0  0  0  0  0  0  0  0  0  0  0
   40.1911   28.7287    8.9054 C   0  0  0  0  0  0  0  0  0  0  0  0
   40.4073   29.2673    7.5621 N   0  0  0  0  0  0  0  0  0  0  0  0
   40.4163   31.0314   10.1863 N   0  0  0  0  0  0  0  0  0  0  0  0
   40.3323   31.3640   11.5588 C   0  0  0  0  0  0  0  0  0  0  0  0
   40.0739   30.1750   12.3000 N   0  0  0  0  0  0  0  0  0  0  0  0
  2  1  1  6  0  0  0
  2  3  1  0  0  0  0
  2  5  1  0  0  0  0
  3  4  1  0  0  0  0
  3 17  1  0  0  0  0
  5  6  1  0  0  0  0
  7  6  1  1  0  0  0
  7  8  1  0  0  0  0
  7  9  1  0  0  0  0
 10  9  1  6  0  0  0
 10 11  1  0  0  0  0
 10 12  1  0  0  0  0
 11 16  1  0  0  0  0
 12 13  1  1  0  0  0
 12 14  1  0  0  0  0
 14 15  1  1  0  0  0
 14 16  1  0  0  0  0
 16 27  1  6  0  0  0
 18 19  2  0  0  0  0
 18 23  1  0  0  0  0
 19 20  1  0  0  0  0
 20 21  2  0  0  0  0
 21 22  1  0  0  0  0
 21 27  1  0  0  0  0
 22 23  2  0  0  0  0
 22 25  1  0  0  0  0
 23 24  1  0  0  0  0
 25 26  2  0  0  0  0
 26 27  1  0  0  0  0
M  END
>  <CHROM.1>
-171.81046746,43.50828213,90.02927874,85.25484483,-170.39148984,-31.50996111
38.37069438,39.63409023,27.58134496,13.51573194,-1.88118771,1.24757941,-0.60383849

>  <Name>
ligand

>  <RI>
0

>  <Rbt.Current_Directory>
/home/itssahil/PROJECTS/Mol_Feturizer/New_Systems/rnas/3GX2

>  <Rbt.Executable>
rbdock ($Id: //depot/dev/client3/rdock/2013.1/src/exe/rbdock.cxx#4 $)

>  <Rbt.Library>
libRbt.so (2013.1, Build901 2013/11/27)

>  <Rbt.Parameter_File>
/export/apps/rDock/src/rDock_2013.1_src/data/scripts/dock_solv.prm

>  <Rbt.Receptor>
prm/blind_docking_60.prm

>  <SCORE>
15.2043

>  <SCORE.INTER>
4.7933

>  <SCORE.INTER.CONST>
1

>  <SCORE.INTER.POLAR>
0

>  <SCORE.INTER.ROT>
7

>  <SCORE.INTER.SOLV>
13.255

>  <SCORE.INTER.VDW>
-9.48946

>  <SCORE.INTER.norm>
0.17753

>  <SCORE.INTRA>
2.99606

>  <SCORE.INTRA.DIHEDRAL>
-0.567524

>  <SCORE.INTRA.DIHEDRAL.0>
13.9704

>  <SCORE.INTRA.POLAR>
0

>  <SCORE.INTRA.POLAR.0>
0

>  <SCORE.INTRA.REPUL>
0

>  <SCORE.INTRA.REPUL.0>
0

>  <SCORE.INTRA.SOLV>
4.64099

>  <SCORE.INTRA.SOLV.lig_0>
-70.9758

>  <SCORE.INTRA.VDW>
0.959324

>  <SCORE.INTRA.VDW.0>
-2.70686

>  <SCORE.INTRA.norm>
0.110965

>  <SCORE.RESTR>
7.41494

>  <SCORE.RESTR.CAVITY>
7.41494

>  <SCORE.RESTR.norm>
0.274627

>  <SCORE.SYSTEM>
0

>  <SCORE.SYSTEM.CONST>
0

>  <SCORE.SYSTEM.DIHEDRAL>
0

>  <SCORE.SYSTEM.SOLV>
0

>  <SCORE.SYSTEM.norm>
0

>  <SCORE.heavy>
27

>  <SCORE.norm>
0.563122

>  <RMSD>
35.690

$$$$
ligand
 OpenBabel11021811473D
libRbt.so/2013.1/901 2013/11/27
 27 29  0  0  0  0  0  0  0  0999 V2000
   39.5317   22.9977   13.1792 N   0  0  0  0  0  0  0  0  0  0  0  0
   39.7999   24.0297   14.1782 C   0  0  2  0  0  0  0  0  0  0  0  0
   41.0612   24.8506   13.9016 C   0  0  0  0  0  0  0  0  0  0  0  0
   40.9515   25.8959   13.3520 O   0  0  0  0  0  0  0  0  0  0  0  0
   39.7039   23.5487   15.6413 C   0  0  0  0  0  0  0  0  0  0  0  0
   39.3920   24.5767   16.7643 C   0  0  0  0  0  0  0  0  0  0  0  0
   39.9258   26.0147   16.5284 C   0  0  2  0  0  0  0  0  0  0  0  0
   40.0658   26.7804   17.7670 N   0  0  0  0  0  0  0  0  0  0  0  0
   39.1167   26.7703   15.4294 C   0  0  0  0  0  0  0  0  0  0  0  0
   39.3253   28.3148   15.2762 C   0  0  1  0  0  0  0  0  0  0  0  0
   40.3766   28.8049   14.3921 O   0  0  0  0  0  0  0  0  0  0  0  0
   38.0751   29.1576   14.8986 C   0  0  1  0  0  0  0  0  0  0  0  0
   37.0125   29.2449   15.8569 O   0  0  0  0  0  0  0  0  0  0  0  0
   38.6408   30.4669   14.2664 C   0  0  1  0  0  0  0  0  0  0  0  0
   38.5065   31.6643   14.9938 O   0  0  0  0  0  0  0  0  0  0  0  0
   40.0346   30.0398   13.7956 C   0  0  2  0  0  0  0  0  0  0  0  0
   42.2027   24.6135   14.6930 O   0  0  0  0  0  0  0  0  0  0  0  0
   39.8464   26.8676    9.3924 N   0  0  0  0  0  0  0  0  0  0  0  0
   39.6860   26.4808   10.7278 C   0  0  0  0  0  0  0  0  0  0  0  0
   39.7690   27.4774   11.7932 N   0  0  0  0  0  0  0  0  0  0  0  0
   40.0022   28.7917   11.4876 C   0  0  0  0  0  0  0  0  0  0  0  0
   40.1644   29.1722   10.1412 C   0  0  0  0  0  0  0  0  0  0  0  0
   40.0822   28.1783    9.0800 C   0  0  0  0  0  0  0  0  0  0  0  0
   40.2495   28.5719    7.6805 N   0  0  0  0  0  0  0  0  0  0  0  0
   40.3966   30.5955   10.1058 N   0  0  0  0  0  0  0  0  0  0  0  0
   40.3758   31.0688   11.4389 C   0  0  0  0  0  0  0  0  0  0  0  0
   40.1311   29.9674   12.3089 N   0  0  0  0  0  0  0  0  0  0  0  0
  2  1  1  6  0  0  0
  2  3  1  0  0  0  0
  2  5  1  0  0  0  0
  3  4  1  0  0  0  0
  3 17  1  0  0  0  0
  5  6  1  0  0  0  0
  7  6  1  1  0  0  0
  7  8  1  0  0  0  0
  7  9  1  0  0  0  0
 10  9  1  6  0  0  0
 10 11  1  0  0  0  0
 10 12  1  0  0  0  0
 11 16  1  0  0  0  0
 12 13  1  1  0  0  0
 12 14  1  0  0  0  0
 14 15  1  1  0  0  0
 14 16  1  0  0  0  0
 16 27  1  6  0  0  0
 18 19  2  0  0  0  0
 18 23  1  0  0  0  0
 19 20  1  0  0  0  0
 20 21  2  0  0  0  0
 21 22  1  0  0  0  0
 21 27  1  0  0  0  0
 22 23  2  0  0  0  0
 22 25  1  0  0  0  0
 23 24  1  0  0  0  0
 25 26  2  0  0  0  0
 26 27  1  0  0  0  0
M  END
>  <CHROM.1>
96.69061095,-155.36240673,-31.68623497,-158.08373489,167.48807443,88.76766795
25.86033256,39.79121125,27.57208703,13.38305263,-1.60046124,1.29280972,-0.85242644

>  <Name>
ligand

>  <RI>
0

>  <Rbt.Current_Directory>
/home/itssahil/PROJECTS/Mol_Feturizer/New_Systems/rnas/3GX2

>  <Rbt.Executable>
rbdock ($Id: //depot/dev/client3/rdock/2013.1/src/exe/rbdock.cxx#4 $)

>  <Rbt.Library>
libRbt.so (2013.1, Build901 2013/11/27)

>  <Rbt.Parameter_File>
/export/apps/rDock/src/rDock_2013.1_src/data/scripts/dock_solv.prm

>  <Rbt.Receptor>
prm/blind_docking_60.prm

>  <SCORE>
14.9147

>  <SCORE.INTER>
4.24169

>  <SCORE.INTER.CONST>
1

>  <SCORE.INTER.POLAR>
0

>  <SCORE.INTER.ROT>
7

>  <SCORE.INTER.SOLV>
15.651

>  <SCORE.INTER.VDW>
-10.6559

>  <SCORE.INTER.norm>
0.1571

>  <SCORE.INTRA>
1.94001

>  <SCORE.INTRA.DIHEDRAL>
-0.296163

>  <SCORE.INTRA.DIHEDRAL.0>
13.9704

>  <SCORE.INTRA.POLAR>
0

>  <SCORE.INTRA.POLAR.0>
0

>  <SCORE.INTRA.REPUL>
0.147099

>  <SCORE.INTRA.REPUL.0>
0

>  <SCORE.INTRA.SOLV>
2.01773

>  <SCORE.INTRA.SOLV.lig_0>
-70.9758

>  <SCORE.INTRA.VDW>
0.343735

>  <SCORE.INTRA.VDW.0>
-2.70686

>  <SCORE.INTRA.norm>
0.0718524

>  <SCORE.RESTR>
8.73296

>  <SCORE.RESTR.CAVITY>
8.73296

>  <SCORE.RESTR.norm>
0.323443

>  <SCORE.SYSTEM>
0

>  <SCORE.SYSTEM.CONST>
0

>  <SCORE.SYSTEM.DIHEDRAL>
0

>  <SCORE.SYSTEM.SOLV>
0

>  <SCORE.SYSTEM.norm>
0

>  <SCORE.heavy>
27

>  <SCORE.norm>
0.552395

>  <RMSD>
35.693

$$$$
ligand
 OpenBabel11021811473D
libRbt.so/2013.1/901 2013/11/27
 27 29  0  0  0  0  0  0  0  0999 V2000
   38.3903   24.4321   14.3784 N   0  0  0  0  0  0  0  0  0  0  0  0
   39.6777   24.9013   14.8858 C   0  0  2  0  0  0  0  0  0  0  0  0
   40.8048   24.8649   13.8517 C   0  0  0  0  0  0  0  0  0  0  0  0
   41.4978   25.8198   13.7302 O   0  0  0  0  0  0  0  0  0  0  0  0
   40.0899   24.3014   16.2464 C   0  0  0  0  0  0  0  0  0  0  0  0
   39.4779   24.8793   17.5528 C   0  0  0  0  0  0  0  0  0  0  0  0
   39.6350   26.4105   17.7504 C   0  0  2  0  0  0  0  0  0  0  0  0
   39.5641   26.8136   19.1549 N   0  0  0  0  0  0  0  0  0  0  0  0
   38.6739   27.2247   16.8303 C   0  0  0  0  0  0  0  0  0  0  0  0
   39.2667   28.4027   15.9857 C   0  0  1  0  0  0  0  0  0  0  0  0
   40.2395   28.1072   14.9400 O   0  0  0  0  0  0  0  0  0  0  0  0
   38.2486   29.3632   15.3097 C   0  0  1  0  0  0  0  0  0  0  0  0
   37.4361   30.1832   16.1598 O   0  0  0  0  0  0  0  0  0  0  0  0
   39.0306   30.0252   14.1331 C   0  0  1  0  0  0  0  0  0  0  0  0
   39.3590   31.3894   14.2420 O   0  0  0  0  0  0  0  0  0  0  0  0
   40.1490   29.0146   13.8601 C   0  0  2  0  0  0  0  0  0  0  0  0
   41.2953   23.6103   13.4380 O   0  0  0  0  0  0  0  0  0  0  0  0
   40.6504   29.2099    8.4566 N   0  0  0  0  0  0  0  0  0  0  0  0
   40.9852   30.2076    9.3793 C   0  0  0  0  0  0  0  0  0  0  0  0
   40.7806   29.9810   10.8082 N   0  0  0  0  0  0  0  0  0  0  0  0
   40.2628   28.7920   11.2479 C   0  0  0  0  0  0  0  0  0  0  0  0
   39.9269   27.7939   10.3125 C   0  0  0  0  0  0  0  0  0  0  0  0
   40.1303   28.0208    8.8885 C   0  0  0  0  0  0  0  0  0  0  0  0
   39.7828   26.9847    7.9153 N   0  0  0  0  0  0  0  0  0  0  0  0
   39.4081   26.6603   11.0382 N   0  0  0  0  0  0  0  0  0  0  0  0
   39.4312   26.9830   12.4155 C   0  0  0  0  0  0  0  0  0  0  0  0
   39.9590   28.2978   12.5659 N   0  0  0  0  0  0  0  0  0  0  0  0
  2  1  1  6  0  0  0
  2  3  1  0  0  0  0
  2  5  1  0  0  0  0
  3  4  1  0  0  0  0
  3 17  1  0  0  0  0
  5  6  1  0  0  0  0
  7  6  1  1  0  0  0
  7  8  1  0  0  0  0
  7  9  1  0  0  0  0
 10  9  1  6  0  0  0
 10 11  1  0  0  0  0
 10 12  1  0  0  0  0
 11 16  1  0  0  0  0
 12 13  1  1  0  0  0
 12 14  1  0  0  0  0
 14 15  1  1  0  0  0
 14 16  1  0  0  0  0
 16 27  1  6  0  0  0
 18 19  2  0  0  0  0
 18 23  1  0  0  0  0
 19 20  1  0  0  0  0
 20 21  2  0  0  0  0
 21 22  1  0  0  0  0
 21 27  1  0  0  0  0
 22 23  2  0  0  0  0
 22 25  1  0  0  0  0
 23 24  1  0  0  0  0
 25 26  2  0  0  0  0
 26 27  1  0  0  0  0
M  END
>  <CHROM.1>
132.60629029,-79.78644953,-54.31978662,-156.26373800,-130.79292048,64.84571312
-157.58084749,39.78296281,27.49051003,13.61630892,-2.02329141,1.30692961
-0.81815852

>  <Name>
ligand

>  <RI>
0

>  <Rbt.Current_Directory>
/home/itssahil/PROJECTS/Mol_Feturizer/New_Systems/rnas/3GX2

>  <Rbt.Executable>
rbdock ($Id: //depot/dev/client3/rdock/2013.1/src/exe/rbdock.cxx#4 $)

>  <Rbt.Library>
libRbt.so (2013.1, Build901 2013/11/27)

>  <Rbt.Parameter_File>
/export/apps/rDock/src/rDock_2013.1_src/data/scripts/dock_solv.prm

>  <Rbt.Receptor>
prm/blind_docking_60.prm

>  <SCORE>
12.7521

>  <SCORE.INTER>
2.43703

>  <SCORE.INTER.CONST>
1

>  <SCORE.INTER.POLAR>
0

>  <SCORE.INTER.ROT>
7

>  <SCORE.INTER.SOLV>
14.1661

>  <SCORE.INTER.VDW>
-11.364

>  <SCORE.INTER.norm>
0.0902605

>  <SCORE.INTRA>
-0.452513

>  <SCORE.INTRA.DIHEDRAL>
-0.691477

>  <SCORE.INTRA.DIHEDRAL.0>
13.9704

>  <SCORE.INTRA.POLAR>
0

>  <SCORE.INTRA.POLAR.0>
0

>  <SCORE.INTRA.REPUL>
0

>  <SCORE.INTRA.REPUL.0>
0

>  <SCORE.INTRA.SOLV>
2.08393

>  <SCORE.INTRA.SOLV.lig_0>
-70.9758

>  <SCORE.INTRA.VDW>
-1.14874

>  <SCORE.INTRA.VDW.0>
-2.70686

>  <SCORE.INTRA.norm>
-0.0167598

>  <SCORE.RESTR>
10.7676

>  <SCORE.RESTR.CAVITY>
10.7676

>  <SCORE.RESTR.norm>
0.398799

>  <SCORE.SYSTEM>
0

>  <SCORE.SYSTEM.CONST>
0

>  <SCORE.SYSTEM.DIHEDRAL>
0

>  <SCORE.SYSTEM.SOLV>
0

>  <SCORE.SYSTEM.norm>
0

>  <SCORE.heavy>
27

>  <SCORE.norm>
0.4723

>  <RMSD>
35.700

$$$$
ligand
 OpenBabel11021811473D
libRbt.so/2013.1/901 2013/11/27
 27 29  0  0  0  0  0  0  0  0999 V2000
   38.0150   24.8871   14.9584 N   0  0  0  0  0  0  0  0  0  0  0  0
   38.9551   24.0096   15.6521 C   0  0  2  0  0  0  0  0  0  0  0  0
   39.3047   24.4685   17.0693 C   0  0  0  0  0  0  0  0  0  0  0  0
   40.4361   24.7157   17.3254 O   0  0  0  0  0  0  0  0  0  0  0  0
   40.1960   23.6141   14.8246 C   0  0  0  0  0  0  0  0  0  0  0  0
   41.2332   24.7038   14.4350 C   0  0  0  0  0  0  0  0  0  0  0  0
   40.6429   26.0758   14.0135 C   0  0  2  0  0  0  0  0  0  0  0  0
   41.5342   26.8335   13.1352 N   0  0  0  0  0  0  0  0  0  0  0  0
   40.1415   26.9023   15.2377 C   0  0  0  0  0  0  0  0  0  0  0  0
   39.8458   28.4273   15.0400 C   0  0  1  0  0  0  0  0  0  0  0  0
   40.6884   29.2024   14.1364 O   0  0  0  0  0  0  0  0  0  0  0  0
   38.3931   28.8152   14.6461 C   0  0  1  0  0  0  0  0  0  0  0  0
   37.3550   28.5855   15.6077 O   0  0  0  0  0  0  0  0  0  0  0  0
   38.5127   30.2181   13.9741 C   0  0  1  0  0  0  0  0  0  0  0  0
   38.0001   31.3298   14.6684 O   0  0  0  0  0  0  0  0  0  0  0  0
   39.9716   30.2457   13.5074 C   0  0  2  0  0  0  0  0  0  0  0  0
   38.2871   25.0390   17.8598 O   0  0  0  0  0  0  0  0  0  0  0  0
   39.8517   27.0508    9.1181 N   0  0  0  0  0  0  0  0  0  0  0  0
   39.6703   26.6709   10.4529 C   0  0  0  0  0  0  0  0  0  0  0  0
   39.7368   27.6730   11.5143 N   0  0  0  0  0  0  0  0  0  0  0  0
   39.9750   28.9857   11.2056 C   0  0  0  0  0  0  0  0  0  0  0  0
   40.1584   29.3592    9.8599 C   0  0  0  0  0  0  0  0  0  0  0  0
   40.0926   28.3599    8.8028 C   0  0  0  0  0  0  0  0  0  0  0  0
   40.2819   28.7462    7.4041 N   0  0  0  0  0  0  0  0  0  0  0  0
   40.3913   30.7823    9.8209 N   0  0  0  0  0  0  0  0  0  0  0  0
   40.3498   31.2625   11.1510 C   0  0  0  0  0  0  0  0  0  0  0  0
   40.0913   30.1656   12.0228 N   0  0  0  0  0  0  0  0  0  0  0  0
  2  1  1  6  0  0  0
  2  3  1  0  0  0  0
  2  5  1  0  0  0  0
  3  4  1  0  0  0  0
  3 17  1  0  0  0  0
  5  6  1  0  0  0  0
  7  6  1  1  0  0  0
  7  8  1  0  0  0  0
  7  9  1  0  0  0  0
 10  9  1  6  0  0  0
 10 11  1  0  0  0  0
 10 12  1  0  0  0  0
 11 16  1  0  0  0  0
 12 13  1  1  0  0  0
 12 14  1  0  0  0  0
 14 15  1  1  0  0  0
 14 16  1  0  0  0  0
 16 27  1  6  0  0  0
 18 19  2  0  0  0  0
 18 23  1  0  0  0  0
 19 20  1  0  0  0  0
 20 21  2  0  0  0  0
 21 22  1  0  0  0  0
 21 27  1  0  0  0  0
 22 23  2  0  0  0  0
 22 25  1  0  0  0  0
 23 24  1  0  0  0  0
 25 26  2  0  0  0  0
 26 27  1  0  0  0  0
M  END
>  <CHROM.1>
-119.60164403,66.51972441,-40.09791603,-154.88622672,165.24793367,-35.75803775
44.59032308,39.68474089,27.64387960,13.36010152,-1.86678607,1.26358036,-0.67216683

>  <Name>
ligand

>  <RI>
0

>  <Rbt.Current_Directory>
/home/itssahil/PROJECTS/Mol_Feturizer/New_Systems/rnas/3GX2

>  <Rbt.Executable>
rbdock ($Id: //depot/dev/client3/rdock/2013.1/src/exe/rbdock.cxx#4 $)

>  <Rbt.Library>
libRbt.so (2013.1, Build901 2013/11/27)

>  <Rbt.Parameter_File>
/export/apps/rDock/src/rDock_2013.1_src/data/scripts/dock_solv.prm

>  <Rbt.Receptor>
prm/blind_docking_60.prm

>  <SCORE>
14.8716

>  <SCORE.INTER>
4.79457

>  <SCORE.INTER.CONST>
1

>  <SCORE.INTER.POLAR>
0

>  <SCORE.INTER.ROT>
7

>  <SCORE.INTER.SOLV>
13.4157

>  <SCORE.INTER.VDW>
-9.54218

>  <SCORE.INTER.norm>
0.177577

>  <SCORE.INTRA>
2.77349

>  <SCORE.INTRA.DIHEDRAL>
-2.8556

>  <SCORE.INTRA.DIHEDRAL.0>
13.9704

>  <SCORE.INTRA.POLAR>
0

>  <SCORE.INTRA.POLAR.0>
0

>  <SCORE.INTRA.REPUL>
0

>  <SCORE.INTRA.REPUL.0>
0

>  <SCORE.INTRA.SOLV>
7.69286

>  <SCORE.INTRA.SOLV.lig_0>
-70.9758

>  <SCORE.INTRA.VDW>
0.354865

>  <SCORE.INTRA.VDW.0>
-2.70686

>  <SCORE.INTRA.norm>
0.102722

>  <SCORE.RESTR>
7.30357

>  <SCORE.RESTR.CAVITY>
7.30357

>  <SCORE.RESTR.norm>
0.270502

>  <SCORE.SYSTEM>
0

>  <SCORE.SYSTEM.CONST>
0

>  <SCORE.SYSTEM.DIHEDRAL>
0

>  <SCORE.SYSTEM.SOLV>
0

>  <SCORE.SYSTEM.norm>
0

>  <SCORE.heavy>
27

>  <SCORE.norm>
0.550801

>  <RMSD>
35.709

$$$$
ligand
 OpenBabel11021811473D
libRbt.so/2013.1/901 2013/11/27
 27 29  0  0  0  0  0  0  0  0999 V2000
   39.2401   22.2752   16.1441 N   0  0  0  0  0  0  0  0  0  0  0  0
   40.1141   23.4433   16.2254 C   0  0  2  0  0  0  0  0  0  0  0  0
   39.5364   24.5964   17.0488 C   0  0  0  0  0  0  0  0  0  0  0  0
   38.5069   24.4327   17.6146 O   0  0  0  0  0  0  0  0  0  0  0  0
   40.6999   23.9034   14.8741 C   0  0  0  0  0  0  0  0  0  0  0  0
   39.8156   24.7310   13.9004 C   0  0  0  0  0  0  0  0  0  0  0  0
   40.2012   26.2263   13.7458 C   0  0  2  0  0  0  0  0  0  0  0  0
   41.5987   26.4167   13.3576 N   0  0  0  0  0  0  0  0  0  0  0  0
   39.7906   27.0721   14.9905 C   0  0  0  0  0  0  0  0  0  0  0  0
   39.6244   28.6200   14.8211 C   0  0  1  0  0  0  0  0  0  0  0  0
   40.5612   29.3458   13.9710 O   0  0  0  0  0  0  0  0  0  0  0  0
   38.2239   29.1314   14.3818 C   0  0  1  0  0  0  0  0  0  0  0  0
   37.1329   28.9634   15.2965 O   0  0  0  0  0  0  0  0  0  0  0  0
   38.4807   30.5352   13.7514 C   0  0  1  0  0  0  0  0  0  0  0  0
   38.0297   31.6682   14.4541 O   0  0  0  0  0  0  0  0  0  0  0  0
   39.9549   30.4570   13.3422 C   0  0  2  0  0  0  0  0  0  0  0  0
   40.4144   25.5983   17.5082 O   0  0  0  0  0  0  0  0  0  0  0  0
   39.9333   27.3456    8.8917 N   0  0  0  0  0  0  0  0  0  0  0  0
   39.6950   26.9454   10.2115 C   0  0  0  0  0  0  0  0  0  0  0  0
   39.7424   27.9264   11.2934 N   0  0  0  0  0  0  0  0  0  0  0  0
   40.0182   29.2392   11.0186 C   0  0  0  0  0  0  0  0  0  0  0  0
   40.2587   29.6333    9.6878 C   0  0  0  0  0  0  0  0  0  0  0  0
   40.2121   28.6549    8.6103 C   0  0  0  0  0  0  0  0  0  0  0  0
   40.4607   29.0626    7.2270 N   0  0  0  0  0  0  0  0  0  0  0  0
   40.5215   31.0517    9.6843 N   0  0  0  0  0  0  0  0  0  0  0  0
   40.4405   31.5084   11.0209 C   0  0  0  0  0  0  0  0  0  0  0  0
   40.1278   30.4014   11.8617 N   0  0  0  0  0  0  0  0  0  0  0  0
  2  1  1  6  0  0  0
  2  3  1  0  0  0  0
  2  5  1  0  0  0  0
  3  4  1  0  0  0  0
  3 17  1  0  0  0  0
  5  6  1  0  0  0  0
  7  6  1  1  0  0  0
  7  8  1  0  0  0  0
  7  9  1  0  0  0  0
 10  9  1  6  0  0  0
 10 11  1  0  0  0  0
 10 12  1  0  0  0  0
 11 16  1  0  0  0  0
 12 13  1  1  0  0  0
 12 14  1  0  0  0  0
 14 15  1  1  0  0  0
 14 16  1  0  0  0  0
 16 27  1  6  0  0  0
 18 19  2  0  0  0  0
 18 23  1  0  0  0  0
 19 20  1  0  0  0  0
 20 21  2  0  0  0  0
 21 22  1  0  0  0  0
 21 27  1  0  0  0  0
 22 23  2  0  0  0  0
 22 25  1  0  0  0  0
 23 24  1  0  0  0  0
 25 26  2  0  0  0  0
 26 27  1  0  0  0  0
M  END
>  <CHROM.1>
4.96630013,78.76219285,109.00743003,54.91241768,-158.40270877,-38.95811324
41.19289713,39.72681226,27.71833065,13.26790391,-1.74280256,1.26519177,-0.69959984

>  <Name>
ligand

>  <RI>
0

>  <Rbt.Current_Directory>
/home/itssahil/PROJECTS/Mol_Feturizer/New_Systems/rnas/3GX2

>  <Rbt.Executable>
rbdock ($Id: //depot/dev/client3/rdock/2013.1/src/exe/rbdock.cxx#4 $)

>  <Rbt.Library>
libRbt.so (2013.1, Build901 2013/11/27)

>  <Rbt.Parameter_File>
/export/apps/rDock/src/rDock_2013.1_src/data/scripts/dock_solv.prm

>  <Rbt.Receptor>
prm/blind_docking_60.prm

>  <SCORE>
13.9149

>  <SCORE.INTER>
5.06457

>  <SCORE.INTER.CONST>
1

>  <SCORE.INTER.POLAR>
0

>  <SCORE.INTER.ROT>
7

>  <SCORE.INTER.SOLV>
14.7124

>  <SCORE.INTER.VDW>
-9.79441

>  <SCORE.INTER.norm>
0.187577

>  <SCORE.INTRA>
0.907944

>  <SCORE.INTRA.DIHEDRAL>
0.842981

>  <SCORE.INTRA.DIHEDRAL.0>
13.9704

>  <SCORE.INTRA.POLAR>
0

>  <SCORE.INTRA.POLAR.0>
0

>  <SCORE.INTRA.REPUL>
0

>  <SCORE.INTRA.REPUL.0>
0

>  <SCORE.INTRA.SOLV>
2.90166

>  <SCORE.INTRA.SOLV.lig_0>
-70.9758

>  <SCORE.INTRA.VDW>
-0.964375

>  <SCORE.INTRA.VDW.0>
-2.70686

>  <SCORE.INTRA.norm>
0.0336275

>  <SCORE.RESTR>
7.94235

>  <SCORE.RESTR.CAVITY>
7.94235

>  <SCORE.RESTR.norm>
0.294161

>  <SCORE.SYSTEM>
0

>  <SCORE.SYSTEM.CONST>
0

>  <SCORE.SYSTEM.DIHEDRAL>
0

>  <SCORE.SYSTEM.SOLV>
0

>  <SCORE.SYSTEM.norm>
0

>  <SCORE.heavy>
27

>  <SCORE.norm>
0.515365

>  <RMSD>
35.718

$$$$
ligand
 OpenBabel11021811473D
libRbt.so/2013.1/901 2013/11/27
 27 29  0  0  0  0  0  0  0  0999 V2000
   38.3635   22.7120   16.6207 N   0  0  0  0  0  0  0  0  0  0  0  0
   39.4329   23.6627   16.3249 C   0  0  2  0  0  0  0  0  0  0  0  0
   39.3409   24.9688   17.1167 C   0  0  0  0  0  0  0  0  0  0  0  0
   40.3299   25.4163   17.5946 O   0  0  0  0  0  0  0  0  0  0  0  0
   39.6953   23.8880   14.8211 C   0  0  0  0  0  0  0  0  0  0  0  0
   40.8893   24.7793   14.3793 C   0  0  0  0  0  0  0  0  0  0  0  0
   40.5250   26.2194   13.9302 C   0  0  2  0  0  0  0  0  0  0  0  0
   41.5388   26.8189   13.0625 N   0  0  0  0  0  0  0  0  0  0  0  0
   40.1331   27.1304   15.1343 C   0  0  0  0  0  0  0  0  0  0  0  0
   39.8505   28.6468   14.8640 C   0  0  1  0  0  0  0  0  0  0  0  0
   40.7006   29.3711   13.9260 O   0  0  0  0  0  0  0  0  0  0  0  0
   38.4015   29.0275   14.4498 C   0  0  1  0  0  0  0  0  0  0  0  0
   37.3604   28.8523   15.4196 O   0  0  0  0  0  0  0  0  0  0  0  0
   38.5337   30.3959   13.7122 C   0  0  1  0  0  0  0  0  0  0  0  0
   38.0295   31.5435   14.3522 O   0  0  0  0  0  0  0  0  0  0  0  0
   39.9933   30.3893   13.2471 C   0  0  2  0  0  0  0  0  0  0  0  0
   38.2559   25.8317   16.8635 O   0  0  0  0  0  0  0  0  0  0  0  0
   39.7746   27.0047    9.0064 N   0  0  0  0  0  0  0  0  0  0  0  0
   39.5766   26.6922   10.3562 C   0  0  0  0  0  0  0  0  0  0  0  0
   39.6750   27.7385   11.3714 N   0  0  0  0  0  0  0  0  0  0  0  0
   39.9593   29.0268   11.0047 C   0  0  0  0  0  0  0  0  0  0  0  0
   40.1590   29.3324    9.6443 C   0  0  0  0  0  0  0  0  0  0  0  0
   40.0616   28.2891    8.6331 C   0  0  0  0  0  0  0  0  0  0  0  0
   40.2678   28.6048    7.2192 N   0  0  0  0  0  0  0  0  0  0  0  0
   40.4412   30.7434    9.5419 N   0  0  0  0  0  0  0  0  0  0  0  0
   40.4128   31.2846   10.8488 C   0  0  0  0  0  0  0  0  0  0  0  0
   40.1141   30.2379   11.7681 N   0  0  0  0  0  0  0  0  0  0  0  0
  2  1  1  6  0  0  0
  2  3  1  0  0  0  0
  2  5  1  0  0  0  0
  3  4  1  0  0  0  0
  3 17  1  0  0  0  0
  5  6  1  0  0  0  0
  7  6  1  1  0  0  0
  7  8  1  0  0  0  0
  7  9  1  0  0  0  0
 10  9  1  6  0  0  0
 10 11  1  0  0  0  0
 10 12  1  0  0  0  0
 11 16  1  0  0  0  0
 12 13  1  1  0  0  0
 12 14  1  0  0  0  0
 14 15  1  1  0  0  0
 14 16  1  0  0  0  0
 16 27  1  6  0  0  0
 18 19  2  0  0  0  0
 18 23  1  0  0  0  0
 19 20  1  0  0  0  0
 20 21  2  0  0  0  0
 21 22  1  0  0  0  0
 21 27  1  0  0  0  0
 22 23  2  0  0  0  0
 22 25  1  0  0  0  0
 23 24  1  0  0  0  0
 25 26  2  0  0  0  0
 26 27  1  0  0  0  0
M  END
>  <CHROM.1>
136.25781571,-174.63409926,-102.08427475,-157.57695633,175.10086477,-40.30863124
46.10337307,39.67227958,27.70846482,13.27417282,-1.91457057,1.31378091,-0.61347361

>  <Name>
ligand

>  <RI>
0

>  <Rbt.Current_Directory>
/home/itssahil/PROJECTS/Mol_Feturizer/New_Systems/rnas/3GX2

>  <Rbt.Executable>
rbdock ($Id: //depot/dev/client3/rdock/2013.1/src/exe/rbdock.cxx#4 $)

>  <Rbt.Library>
libRbt.so (2013.1, Build901 2013/11/27)

>  <Rbt.Parameter_File>
/export/apps/rDock/src/rDock_2013.1_src/data/scripts/dock_solv.prm

>  <Rbt.Receptor>
prm/blind_docking_60.prm

>  <SCORE>
11.894

>  <SCORE.INTER>
3.45119

>  <SCORE.INTER.CONST>
1

>  <SCORE.INTER.POLAR>
0

>  <SCORE.INTER.ROT>
7

>  <SCORE.INTER.SOLV>
12.682

>  <SCORE.INTER.VDW>
-10.1932

>  <SCORE.INTER.norm>
0.127822

>  <SCORE.INTRA>
0.770991

>  <SCORE.INTRA.DIHEDRAL>
-1.04287

>  <SCORE.INTRA.DIHEDRAL.0>
13.9704

>  <SCORE.INTRA.POLAR>
0

>  <SCORE.INTRA.POLAR.0>
0

>  <SCORE.INTRA.REPUL>
0

>  <SCORE.INTRA.REPUL.0>
0

>  <SCORE.INTRA.SOLV>
4.02027

>  <SCORE.INTRA.SOLV.lig_0>
-70.9758

>  <SCORE.INTRA.VDW>
-0.717709

>  <SCORE.INTRA.VDW.0>
-2.70686

>  <SCORE.INTRA.norm>
0.0285552

>  <SCORE.RESTR>
7.67183

>  <SCORE.RESTR.CAVITY>
7.67183

>  <SCORE.RESTR.norm>
0.284142

>  <SCORE.SYSTEM>
0

>  <SCORE.SYSTEM.CONST>
0

>  <SCORE.SYSTEM.DIHEDRAL>
0

>  <SCORE.SYSTEM.SOLV>
0

>  <SCORE.SYSTEM.norm>
0

>  <SCORE.heavy>
27

>  <SCORE.norm>
0.440519

>  <RMSD>
35.736

$$$$
ligand
 OpenBabel11021811473D
libRbt.so/2013.1/901 2013/11/27
 27 29  0  0  0  0  0  0  0  0999 V2000
   38.4004   22.6566   16.5321 N   0  0  0  0  0  0  0  0  0  0  0  0
   39.4570   23.6309   16.2685 C   0  0  2  0  0  0  0  0  0  0  0  0
   39.3328   24.9194   17.0844 C   0  0  0  0  0  0  0  0  0  0  0  0
   40.3047   25.3639   17.5988 O   0  0  0  0  0  0  0  0  0  0  0  0
   39.7342   23.8902   14.7728 C   0  0  0  0  0  0  0  0  0  0  0  0
   40.9182   24.8099   14.3638 C   0  0  0  0  0  0  0  0  0  0  0  0
   40.5325   26.2433   13.9108 C   0  0  2  0  0  0  0  0  0  0  0  0
   41.5514   26.8671   13.0667 N   0  0  0  0  0  0  0  0  0  0  0  0
   40.0953   27.1418   15.1087 C   0  0  0  0  0  0  0  0  0  0  0  0
   39.8151   28.6593   14.8421 C   0  0  1  0  0  0  0  0  0  0  0  0
   40.6778   29.3891   13.9200 O   0  0  0  0  0  0  0  0  0  0  0  0
   38.3719   29.0408   14.4092 C   0  0  1  0  0  0  0  0  0  0  0  0
   37.3171   28.8597   15.3631 O   0  0  0  0  0  0  0  0  0  0  0  0
   38.5132   30.4131   13.6805 C   0  0  1  0  0  0  0  0  0  0  0  0
   37.9989   31.5570   14.3191 O   0  0  0  0  0  0  0  0  0  0  0  0
   39.9793   30.4102   13.2363 C   0  0  2  0  0  0  0  0  0  0  0  0
   38.2485   25.7794   16.8190 O   0  0  0  0  0  0  0  0  0  0  0  0
   39.8205   27.0478    8.9752 N   0  0  0  0  0  0  0  0  0  0  0  0
   39.6029   26.7284   10.3204 C   0  0  0  0  0  0  0  0  0  0  0  0
   39.6870   27.7693   11.3423 N   0  0  0  0  0  0  0  0  0  0  0  0
   39.9771   29.0594   10.9866 C   0  0  0  0  0  0  0  0  0  0  0  0
   40.1966   29.3720    9.6308 C   0  0  0  0  0  0  0  0  0  0  0  0
   40.1133   28.3340    8.6129 C   0  0  0  0  0  0  0  0  0  0  0  0
   40.3400   28.6570    7.2038 N   0  0  0  0  0  0  0  0  0  0  0  0
   40.4808   30.7834    9.5398 N   0  0  0  0  0  0  0  0  0  0  0  0
   40.4337   31.3177   10.8490 C   0  0  0  0  0  0  0  0  0  0  0  0
   40.1214   30.2664   11.7585 N   0  0  0  0  0  0  0  0  0  0  0  0
  2  1  1  6  0  0  0
  2  3  1  0  0  0  0
  2  5  1  0  0  0  0
  3  4  1  0  0  0  0
  3 17  1  0  0  0  0
  5  6  1  0  0  0  0
  7  6  1  1  0  0  0
  7  8  1  0  0  0  0
  7  9  1  0  0  0  0
 10  9  1  6  0  0  0
 10 11  1  0  0  0  0
 10 12  1  0  0  0  0
 11 16  1  0  0  0  0
 12 13  1  1  0  0  0
 12 14  1  0  0  0  0
 14 15  1  1  0  0  0
 14 16  1  0  0  0  0
 16 27  1  6  0  0  0
 18 19  2  0  0  0  0
 18 23  1  0  0  0  0
 19 20  1  0  0  0  0
 20 21  2  0  0  0  0
 21 22  1  0  0  0  0
 21 27  1  0  0  0  0
 22 23  2  0  0  0  0
 22 25  1  0  0  0  0
 23 24  1  0  0  0  0
 25 26  2  0  0  0  0
 26 27  1  0  0  0  0
M  END
>  <CHROM.1>
135.23106059,-174.62942269,-103.27270947,-157.38006763,173.82555204,-39.11998935
46.18010593,39.67870343,27.72064011,13.24816103,-1.90553717,1.30013941,-0.61231792

>  <Name>
ligand

>  <RI>
0

>  <Rbt.Current_Directory>
/home/itssahil/PROJECTS/Mol_Feturizer/New_Systems/rnas/3GX2

>  <Rbt.Executable>
rbdock ($Id: //depot/dev/client3/rdock/2013.1/src/exe/rbdock.cxx#4 $)

>  <Rbt.Library>
libRbt.so (2013.1, Build901 2013/11/27)

>  <Rbt.Parameter_File>
/export/apps/rDock/src/rDock_2013.1_src/data/scripts/dock_solv.prm

>  <Rbt.Receptor>
prm/blind_docking_60.prm

>  <SCORE>
11.7022

>  <SCORE.INTER>
3.14998

>  <SCORE.INTER.CONST>
1

>  <SCORE.INTER.POLAR>
0

>  <SCORE.INTER.ROT>
7

>  <SCORE.INTER.SOLV>
12.6111

>  <SCORE.INTER.VDW>
-10.3704

>  <SCORE.INTER.norm>
0.116666

>  <SCORE.INTRA>
0.83027

>  <SCORE.INTRA.DIHEDRAL>
-0.668179

>  <SCORE.INTRA.DIHEDRAL.0>
13.9704

>  <SCORE.INTRA.POLAR>
0

>  <SCORE.INTRA.POLAR.0>
0

>  <SCORE.INTRA.REPUL>
0

>  <SCORE.INTRA.REPUL.0>
0

>  <SCORE.INTRA.SOLV>
3.97903

>  <SCORE.INTRA.SOLV.lig_0>
-70.9758

>  <SCORE.INTRA.VDW>
-0.825157

>  <SCORE.INTRA.VDW.0>
-2.70686

>  <SCORE.INTRA.norm>
0.0307507

>  <SCORE.RESTR>
7.72195

>  <SCORE.RESTR.CAVITY>
7.72195

>  <SCORE.RESTR.norm>
0.285998

>  <SCORE.SYSTEM>
0

>  <SCORE.SYSTEM.CONST>
0

>  <SCORE.SYSTEM.DIHEDRAL>
0

>  <SCORE.SYSTEM.SOLV>
0

>  <SCORE.SYSTEM.norm>
0

>  <SCORE.heavy>
27

>  <SCORE.norm>
0.433415

>  <RMSD>
35.738

$$$$
ligand
 OpenBabel11021811473D
libRbt.so/2013.1/901 2013/11/27
 27 29  0  0  0  0  0  0  0  0999 V2000
   38.2873   22.6936   16.4523 N   0  0  0  0  0  0  0  0  0  0  0  0
   39.3733   23.6432   16.2201 C   0  0  2  0  0  0  0  0  0  0  0  0
   39.2287   24.9551   16.9941 C   0  0  0  0  0  0  0  0  0  0  0  0
   38.1558   25.2662   17.3927 O   0  0  0  0  0  0  0  0  0  0  0  0
   39.7336   23.8573   14.7350 C   0  0  0  0  0  0  0  0  0  0  0  0
   40.9251   24.7835   14.3642 C   0  0  0  0  0  0  0  0  0  0  0  0
   40.5481   26.2245   13.9284 C   0  0  2  0  0  0  0  0  0  0  0  0
   41.5589   26.8427   13.0704 N   0  0  0  0  0  0  0  0  0  0  0  0
   40.1430   27.1192   15.1402 C   0  0  0  0  0  0  0  0  0  0  0  0
   39.8372   28.6334   14.8827 C   0  0  1  0  0  0  0  0  0  0  0  0
   40.6844   29.3819   13.9611 O   0  0  0  0  0  0  0  0  0  0  0  0
   38.3863   28.9938   14.4575 C   0  0  1  0  0  0  0  0  0  0  0  0
   37.3385   28.7907   15.4146 O   0  0  0  0  0  0  0  0  0  0  0  0
   38.5026   30.3720   13.7355 C   0  0  1  0  0  0  0  0  0  0  0  0
   37.9724   31.5041   14.3822 O   0  0  0  0  0  0  0  0  0  0  0  0
   39.9667   30.3950   13.2856 C   0  0  2  0  0  0  0  0  0  0  0  0
   40.3705   25.4941   17.6198 O   0  0  0  0  0  0  0  0  0  0  0  0
   39.8340   27.0549    9.0062 N   0  0  0  0  0  0  0  0  0  0  0  0
   39.6252   26.7252   10.3503 C   0  0  0  0  0  0  0  0  0  0  0  0
   39.7002   27.7614   11.3778 N   0  0  0  0  0  0  0  0  0  0  0  0
   39.9730   29.0570   11.0283 C   0  0  0  0  0  0  0  0  0  0  0  0
   40.1837   29.3798    9.6735 C   0  0  0  0  0  0  0  0  0  0  0  0
   40.1095   28.3465    8.6501 C   0  0  0  0  0  0  0  0  0  0  0  0
   40.3271   28.6802    7.2420 N   0  0  0  0  0  0  0  0  0  0  0  0
   40.4500   30.7951    9.5895 N   0  0  0  0  0  0  0  0  0  0  0  0
   40.4012   31.3215   10.9018 C   0  0  0  0  0  0  0  0  0  0  0  0
   40.1052   30.2613   11.8064 N   0  0  0  0  0  0  0  0  0  0  0  0
  2  1  1  6  0  0  0
  2  3  1  0  0  0  0
  2  5  1  0  0  0  0
  3  4  1  0  0  0  0
  3 17  1  0  0  0  0
  5  6  1  0  0  0  0
  7  6  1  1  0  0  0
  7  8  1  0  0  0  0
  7  9  1  0  0  0  0
 10  9  1  6  0  0  0
 10 11  1  0  0  0  0
 10 12  1  0  0  0  0
 11 16  1  0  0  0  0
 12 13  1  1  0  0  0
 12 14  1  0  0  0  0
 14 15  1  1  0  0  0
 14 16  1  0  0  0  0
 16 27  1  6  0  0  0
 18 19  2  0  0  0  0
 18 23  1  0  0  0  0
 19 20  1  0  0  0  0
 20 21  2  0  0  0  0
 21 22  1  0  0  0  0
 21 27  1  0  0  0  0
 22 23  2  0  0  0  0
 22 25  1  0  0  0  0
 23 24  1  0  0  0  0
 25 26  2  0  0  0  0
 26 27  1  0  0  0  0
M  END
>  <CHROM.1>
-20.49143084,-176.60772740,-99.46770046,-155.08950427,175.48754941,-40.93910513
46.39862193,39.66783422,27.69413679,13.29417760,-1.94493073,1.30354392,-0.57554416

>  <Name>
ligand

>  <RI>
0

>  <Rbt.Current_Directory>
/home/itssahil/PROJECTS/Mol_Feturizer/New_Systems/rnas/3GX2

>  <Rbt.Executable>
rbdock ($Id: //depot/dev/client3/rdock/2013.1/src/exe/rbdock.cxx#4 $)

>  <Rbt.Library>
libRbt.so (2013.1, Build901 2013/11/27)

>  <Rbt.Parameter_File>
/export/apps/rDock/src/rDock_2013.1_src/data/scripts/dock_solv.prm

>  <Rbt.Receptor>
prm/blind_docking_60.prm

>  <SCORE>
11.7282

>  <SCORE.INTER>
3.63872

>  <SCORE.INTER.CONST>
1

>  <SCORE.INTER.POLAR>
0

>  <SCORE.INTER.ROT>
7

>  <SCORE.INTER.SOLV>
12.6677

>  <SCORE.INTER.VDW>
-10.0634

>  <SCORE.INTER.norm>
0.134767

>  <SCORE.INTRA>
0.301487

>  <SCORE.INTRA.DIHEDRAL>
-1.63095

>  <SCORE.INTRA.DIHEDRAL.0>
13.9704

>  <SCORE.INTRA.POLAR>
0

>  <SCORE.INTRA.POLAR.0>
0

>  <SCORE.INTRA.REPUL>
0

>  <SCORE.INTRA.REPUL.0>
0

>  <SCORE.INTRA.SOLV>
3.60802

>  <SCORE.INTRA.SOLV.lig_0>
-70.9758

>  <SCORE.INTRA.VDW>
-0.687051

>  <SCORE.INTRA.VDW.0>
-2.70686

>  <SCORE.INTRA.norm>
0.0111662

>  <SCORE.RESTR>
7.78797

>  <SCORE.RESTR.CAVITY>
7.78797

>  <SCORE.RESTR.norm>
0.288443

>  <SCORE.SYSTEM>
0

>  <SCORE.SYSTEM.CONST>
0

>  <SCORE.SYSTEM.DIHEDRAL>
0

>  <SCORE.SYSTEM.SOLV>
0

>  <SCORE.SYSTEM.norm>
0

>  <SCORE.heavy>
27

>  <SCORE.norm>
0.434377

>  <RMSD>
35.740

$$$$
ligand
 OpenBabel11021811473D
libRbt.so/2013.1/901 2013/11/27
 27 29  0  0  0  0  0  0  0  0999 V2000
   37.9847   25.0036   14.9556 N   0  0  0  0  0  0  0  0  0  0  0  0
   38.9184   24.0867   15.6056 C   0  0  2  0  0  0  0  0  0  0  0  0
   39.2911   24.4877   17.0344 C   0  0  0  0  0  0  0  0  0  0  0  0
   40.4255   24.7320   17.2801 O   0  0  0  0  0  0  0  0  0  0  0  0
   40.1435   23.7027   14.7495 C   0  0  0  0  0  0  0  0  0  0  0  0
   41.1992   24.7874   14.3971 C   0  0  0  0  0  0  0  0  0  0  0  0
   40.6309   26.1571   13.9397 C   0  0  2  0  0  0  0  0  0  0  0  0
   41.5239   26.8670   13.0240 N   0  0  0  0  0  0  0  0  0  0  0  0
   40.1655   27.0332   15.1435 C   0  0  0  0  0  0  0  0  0  0  0  0
   39.8534   28.5468   14.8905 C   0  0  1  0  0  0  0  0  0  0  0  0
   40.6878   29.2976   13.9592 O   0  0  0  0  0  0  0  0  0  0  0  0
   38.3967   28.9042   14.4829 C   0  0  1  0  0  0  0  0  0  0  0  0
   37.3609   28.6984   15.4523 O   0  0  0  0  0  0  0  0  0  0  0  0
   38.5013   30.2830   13.7602 C   0  0  1  0  0  0  0  0  0  0  0  0
   37.9764   31.4136   14.4137 O   0  0  0  0  0  0  0  0  0  0  0  0
   39.9599   30.3095   13.2928 C   0  0  2  0  0  0  0  0  0  0  0  0
   38.2847   25.0166   17.8668 O   0  0  0  0  0  0  0  0  0  0  0  0
   39.7800   26.9716    9.0134 N   0  0  0  0  0  0  0  0  0  0  0  0
   39.5876   26.6410   10.3597 C   0  0  0  0  0  0  0  0  0  0  0  0
   39.6737   27.6766   11.3868 N   0  0  0  0  0  0  0  0  0  0  0  0
   39.9408   28.9727   11.0348 C   0  0  0  0  0  0  0  0  0  0  0  0
   40.1350   29.2966    9.6778 C   0  0  0  0  0  0  0  0  0  0  0  0
   40.0498   28.2638    8.6547 C   0  0  0  0  0  0  0  0  0  0  0  0
   40.2503   28.5985    7.2444 N   0  0  0  0  0  0  0  0  0  0  0  0
   40.3988   30.7122    9.5915 N   0  0  0  0  0  0  0  0  0  0  0  0
   40.3649   31.2378   10.9045 C   0  0  0  0  0  0  0  0  0  0  0  0
   40.0809   30.1768   11.8120 N   0  0  0  0  0  0  0  0  0  0  0  0
  2  1  1  6  0  0  0
  2  3  1  0  0  0  0
  2  5  1  0  0  0  0
  3  4  1  0  0  0  0
  3 17  1  0  0  0  0
  5  6  1  0  0  0  0
  7  6  1  1  0  0  0
  7  8  1  0  0  0  0
  7  9  1  0  0  0  0
 10  9  1  6  0  0  0
 10 11  1  0  0  0  0
 10 12  1  0  0  0  0
 11 16  1  0  0  0  0
 12 13  1  1  0  0  0
 12 14  1  0  0  0  0
 14 15  1  1  0  0  0
 14 16  1  0  0  0  0
 16 27  1  6  0  0  0
 18 19  2  0  0  0  0
 18 23  1  0  0  0  0
 19 20  1  0  0  0  0
 20 21  2  0  0  0  0
 21 22  1  0  0  0  0
 21 27  1  0  0  0  0
 22 23  2  0  0  0  0
 22 25  1  0  0  0  0
 23 24  1  0  0  0  0
 25 26  2  0  0  0  0
 26 27  1  0  0  0  0
M  END
>  <CHROM.1>
-118.20697156,66.98656746,-44.43713983,-151.08363718,167.21418687,-37.76152919
46.46087918,39.66506461,27.67338212,13.23100059,-1.86769065,1.27353686,-0.68774973

>  <Name>
ligand

>  <RI>
0

>  <Rbt.Current_Directory>
/home/itssahil/PROJECTS/Mol_Feturizer/New_Systems/rnas/3GX2

>  <Rbt.Executable>
rbdock ($Id: //depot/dev/client3/rdock/2013.1/src/exe/rbdock.cxx#4 $)

>  <Rbt.Library>
libRbt.so (2013.1, Build901 2013/11/27)

>  <Rbt.Parameter_File>
/export/apps/rDock/src/rDock_2013.1_src/data/scripts/dock_solv.prm

>  <Rbt.Receptor>
prm/blind_docking_60.prm

>  <SCORE>
12.8961

>  <SCORE.INTER>
3.31022

>  <SCORE.INTER.CONST>
1

>  <SCORE.INTER.POLAR>
0

>  <SCORE.INTER.ROT>
7

>  <SCORE.INTER.SOLV>
11.1801

>  <SCORE.INTER.VDW>
-9.78656

>  <SCORE.INTER.norm>
0.122601

>  <SCORE.INTRA>
1.88266

>  <SCORE.INTRA.DIHEDRAL>
-3.30781

>  <SCORE.INTRA.DIHEDRAL.0>
13.9704

>  <SCORE.INTRA.POLAR>
0

>  <SCORE.INTRA.POLAR.0>
0

>  <SCORE.INTRA.REPUL>
0

>  <SCORE.INTRA.REPUL.0>
0

>  <SCORE.INTRA.SOLV>
7.51161

>  <SCORE.INTRA.SOLV.lig_0>
-70.9758

>  <SCORE.INTRA.VDW>
-0.219236

>  <SCORE.INTRA.VDW.0>
-2.70686

>  <SCORE.INTRA.norm>
0.0697282

>  <SCORE.RESTR>
7.70317

>  <SCORE.RESTR.CAVITY>
7.70317

>  <SCORE.RESTR.norm>
0.285302

>  <SCORE.SYSTEM>
0

>  <SCORE.SYSTEM.CONST>
0

>  <SCORE.SYSTEM.DIHEDRAL>
0

>  <SCORE.SYSTEM.SOLV>
0

>  <SCORE.SYSTEM.norm>
0

>  <SCORE.heavy>
27

>  <SCORE.norm>
0.477632

>  <RMSD>
35.766

$$$$
ligand
 OpenBabel11021811473D
libRbt.so/2013.1/901 2013/11/27
 27 29  0  0  0  0  0  0  0  0999 V2000
   38.6373   23.4930   14.3404 N   0  0  0  0  0  0  0  0  0  0  0  0
   39.3517   23.5937   15.6110 C   0  0  2  0  0  0  0  0  0  0  0  0
   38.6845   24.5219   16.6281 C   0  0  0  0  0  0  0  0  0  0  0  0
   37.5223   24.4019   16.8324 O   0  0  0  0  0  0  0  0  0  0  0  0
   40.8693   23.8389   15.4777 C   0  0  0  0  0  0  0  0  0  0  0  0
   41.4131   24.6076   14.2414 C   0  0  0  0  0  0  0  0  0  0  0  0
   40.7066   25.9514   13.9194 C   0  0  2  0  0  0  0  0  0  0  0  0
   41.4865   26.8039   13.0222 N   0  0  0  0  0  0  0  0  0  0  0  0
   40.2320   26.6908   15.2082 C   0  0  0  0  0  0  0  0  0  0  0  0
   39.8647   28.2098   15.1067 C   0  0  1  0  0  0  0  0  0  0  0  0
   40.6757   29.0814   14.2643 O   0  0  0  0  0  0  0  0  0  0  0  0
   38.3980   28.5529   14.7234 C   0  0  1  0  0  0  0  0  0  0  0  0
   37.3650   28.2118   15.6571 O   0  0  0  0  0  0  0  0  0  0  0  0
   38.4550   30.0008   14.1451 C   0  0  1  0  0  0  0  0  0  0  0  0
   37.8843   31.0393   14.9046 O   0  0  0  0  0  0  0  0  0  0  0  0
   39.9143   30.1283   13.6967 C   0  0  2  0  0  0  0  0  0  0  0  0
   39.4901   25.1281   17.6125 O   0  0  0  0  0  0  0  0  0  0  0  0
   39.8476   27.2435    9.0966 N   0  0  0  0  0  0  0  0  0  0  0  0
   39.6543   26.7720   10.4001 C   0  0  0  0  0  0  0  0  0  0  0  0
   39.7073   27.6986   11.5287 N   0  0  0  0  0  0  0  0  0  0  0  0
   39.9443   29.0300   11.3137 C   0  0  0  0  0  0  0  0  0  0  0  0
   40.1397   29.4960    9.9989 C   0  0  0  0  0  0  0  0  0  0  0  0
   40.0875   28.5718    8.8747 C   0  0  0  0  0  0  0  0  0  0  0  0
   40.2892   29.0541    7.5080 N   0  0  0  0  0  0  0  0  0  0  0  0
   40.3685   30.9189   10.0604 N   0  0  0  0  0  0  0  0  0  0  0  0
   40.3124   31.3061   11.4200 C   0  0  0  0  0  0  0  0  0  0  0  0
   40.0488   30.1511   12.2114 N   0  0  0  0  0  0  0  0  0  0  0  0
  2  1  1  6  0  0  0
  2  3  1  0  0  0  0
  2  5  1  0  0  0  0
  3  4  1  0  0  0  0
  3 17  1  0  0  0  0
  5  6  1  0  0  0  0
  7  6  1  1  0  0  0
  7  8  1  0  0  0  0
  7  9  1  0  0  0  0
 10  9  1  6  0  0  0
 10 11  1  0  0  0  0
 10 12  1  0  0  0  0
 11 16  1  0  0  0  0
 12 13  1  1  0  0  0
 12 14  1  0  0  0  0
 14 15  1  1  0  0  0
 14 16  1  0  0  0  0
 16 27  1  6  0  0  0
 18 19  2  0  0  0  0
 18 23  1  0  0  0  0
 19 20  1  0  0  0  0
 20 21  2  0  0  0  0
 21 22  1  0  0  0  0
 21 27  1  0  0  0  0
 22 23  2  0  0  0  0
 22 25  1  0  0  0  0
 23 24  1  0  0  0  0
 25 26  2  0  0  0  0
 26 27  1  0  0  0  0
M  END
>  <CHROM.1>
48.43998512,29.14964438,49.88583777,163.04355932,163.42269366,-39.10076940
47.18232088,39.64748850,27.53973771,13.36927445,-1.92710775,1.25085311,-0.54934912

>  <Name>
ligand

>  <RI>
0

>  <Rbt.Current_Directory>
/home/itssahil/PROJECTS/Mol_Feturizer/New_Systems/rnas/3GX2

>  <Rbt.Executable>
rbdock ($Id: //depot/dev/client3/rdock/2013.1/src/exe/rbdock.cxx#4 $)

>  <Rbt.Library>
libRbt.so (2013.1, Build901 2013/11/27)

>  <Rbt.Parameter_File>
/export/apps/rDock/src/rDock_2013.1_src/data/scripts/dock_solv.prm

>  <Rbt.Receptor>
prm/blind_docking_60.prm

>  <SCORE>
14.0282

>  <SCORE.INTER>
3.47725

>  <SCORE.INTER.CONST>
1

>  <SCORE.INTER.POLAR>
0

>  <SCORE.INTER.ROT>
7

>  <SCORE.INTER.SOLV>
12.1602

>  <SCORE.INTER.VDW>
-10.0019

>  <SCORE.INTER.norm>
0.128787

>  <SCORE.INTRA>
3.24633

>  <SCORE.INTRA.DIHEDRAL>
-2.61362

>  <SCORE.INTRA.DIHEDRAL.0>
13.9704

>  <SCORE.INTRA.POLAR>
0

>  <SCORE.INTRA.POLAR.0>
0

>  <SCORE.INTRA.REPUL>
0

>  <SCORE.INTRA.REPUL.0>
0

>  <SCORE.INTRA.SOLV>
6.30658

>  <SCORE.INTRA.SOLV.lig_0>
-70.9758

>  <SCORE.INTRA.VDW>
1.39985

>  <SCORE.INTRA.VDW.0>
-2.70686

>  <SCORE.INTRA.norm>
0.120234

>  <SCORE.RESTR>
7.30463

>  <SCORE.RESTR.CAVITY>
7.30463

>  <SCORE.RESTR.norm>
0.270542

>  <SCORE.SYSTEM>
0

>  <SCORE.SYSTEM.CONST>
0

>  <SCORE.SYSTEM.DIHEDRAL>
0

>  <SCORE.SYSTEM.SOLV>
0

>  <SCORE.SYSTEM.norm>
0

>  <SCORE.heavy>
27

>  <SCORE.norm>
0.519563

>  <RMSD>
35.770

$$$$
ligand
 OpenBabel11021811473D
libRbt.so/2013.1/901 2013/11/27
 27 29  0  0  0  0  0  0  0  0999 V2000
   39.3602   22.5812   16.0717 N   0  0  0  0  0  0  0  0  0  0  0  0
   39.4597   24.0364   15.9857 C   0  0  2  0  0  0  0  0  0  0  0  0
   39.4981   24.7388   17.3445 C   0  0  0  0  0  0  0  0  0  0  0  0
   40.3082   25.5860   17.5253 O   0  0  0  0  0  0  0  0  0  0  0  0
   38.4718   24.6912   14.9976 C   0  0  0  0  0  0  0  0  0  0  0  0
   39.0205   25.4215   13.7403 C   0  0  0  0  0  0  0  0  0  0  0  0
   40.3217   26.2404   13.9511 C   0  0  2  0  0  0  0  0  0  0  0  0
   41.5179   25.4011   14.0196 N   0  0  0  0  0  0  0  0  0  0  0  0
   40.2035   27.2369   15.1453 C   0  0  0  0  0  0  0  0  0  0  0  0
   39.8832   28.7386   14.8374 C   0  0  1  0  0  0  0  0  0  0  0  0
   40.7106   29.4581   13.8756 O   0  0  0  0  0  0  0  0  0  0  0  0
   38.4233   29.0739   14.4225 C   0  0  1  0  0  0  0  0  0  0  0  0
   37.3922   28.8995   15.4030 O   0  0  0  0  0  0  0  0  0  0  0  0
   38.5187   30.4254   13.6488 C   0  0  1  0  0  0  0  0  0  0  0  0
   37.9909   31.5771   14.2619 O   0  0  0  0  0  0  0  0  0  0  0  0
   39.9754   30.4412   13.1749 C   0  0  2  0  0  0  0  0  0  0  0  0
   38.3331   24.7299   18.1373 O   0  0  0  0  0  0  0  0  0  0  0  0
   39.7610   26.9518    9.0198 N   0  0  0  0  0  0  0  0  0  0  0  0
   39.5700   26.6715   10.3776 C   0  0  0  0  0  0  0  0  0  0  0  0
   39.6659   27.7430   11.3664 N   0  0  0  0  0  0  0  0  0  0  0  0
   39.9410   29.0236   10.9670 C   0  0  0  0  0  0  0  0  0  0  0  0
   40.1337   29.2968    9.5986 C   0  0  0  0  0  0  0  0  0  0  0  0
   40.0387   28.2282    8.6139 C   0  0  0  0  0  0  0  0  0  0  0  0
   40.2376   28.5102    7.1918 N   0  0  0  0  0  0  0  0  0  0  0  0
   40.4070   30.7064    9.4604 N   0  0  0  0  0  0  0  0  0  0  0  0
   40.3803   31.2795   10.7536 C   0  0  0  0  0  0  0  0  0  0  0  0
   40.0914   30.2541   11.6997 N   0  0  0  0  0  0  0  0  0  0  0  0
  2  1  1  1  0  0  0
  2  3  1  0  0  0  0
  2  5  1  0  0  0  0
  3  4  1  0  0  0  0
  3 17  1  0  0  0  0
  5  6  1  0  0  0  0
  7  6  1  1  0  0  0
  7  8  1  0  0  0  0
  7  9  1  0  0  0  0
 10  9  1  6  0  0  0
 10 11  1  0  0  0  0
 10 12  1  0  0  0  0
 11 16  1  0  0  0  0
 12 13  1  1  0  0  0
 12 14  1  0  0  0  0
 14 15  1  1  0  0  0
 14 16  1  0  0  0  0
 16 27  1  6  0  0  0
 18 19  2  0  0  0  0
 18 23  1  0  0  0  0
 19 20  1  0  0  0  0
 20 21  2  0  0  0  0
 21 22  1  0  0  0  0
 21 27  1  0  0  0  0
 22 23  2  0  0  0  0
 22 25  1  0  0  0  0
 23 24  1  0  0  0  0
 25 26  2  0  0  0  0
 26 27  1  0  0  0  0
M  END
>  <CHROM.1>
133.70527719,-115.02086606,-38.59791451,76.92254507,-99.01962056,-52.69365771
47.13060955,39.58997667,27.67897705,13.29575542,-1.96279834,1.35317078,-0.57540719

>  <Name>
ligand

>  <RI>
0

>  <Rbt.Current_Directory>
/home/itssahil/PROJECTS/Mol_Feturizer/New_Systems/rnas/3GX2

>  <Rbt.Executable>
rbdock ($Id: //depot/dev/client3/rdock/2013.1/src/exe/rbdock.cxx#4 $)

>  <Rbt.Library>
libRbt.so (2013.1, Build901 2013/11/27)

>  <Rbt.Parameter_File>
/export/apps/rDock/src/rDock_2013.1_src/data/scripts/dock_solv.prm

>  <Rbt.Receptor>
prm/blind_docking_60.prm

>  <SCORE>
16.1583

>  <SCORE.INTER>
5.77678

>  <SCORE.INTER.CONST>
1

>  <SCORE.INTER.POLAR>
0

>  <SCORE.INTER.ROT>
7

>  <SCORE.INTER.SOLV>
13.4283

>  <SCORE.INTER.VDW>
-8.8916

>  <SCORE.INTER.norm>
0.213955

>  <SCORE.INTRA>
1.67213

>  <SCORE.INTRA.DIHEDRAL>
2.66982

>  <SCORE.INTRA.DIHEDRAL.0>
13.9704

>  <SCORE.INTRA.POLAR>
0

>  <SCORE.INTRA.POLAR.0>
0

>  <SCORE.INTRA.REPUL>
0

>  <SCORE.INTRA.REPUL.0>
0

>  <SCORE.INTRA.SOLV>
2.8757

>  <SCORE.INTRA.SOLV.lig_0>
-70.9758

>  <SCORE.INTRA.VDW>
-1.10063

>  <SCORE.INTRA.VDW.0>
-2.70686

>  <SCORE.INTRA.norm>
0.0619306

>  <SCORE.RESTR>
8.70938

>  <SCORE.RESTR.CAVITY>
8.70938

>  <SCORE.RESTR.norm>
0.32257

>  <SCORE.SYSTEM>
0

>  <SCORE.SYSTEM.CONST>
0

>  <SCORE.SYSTEM.DIHEDRAL>
0

>  <SCORE.SYSTEM.SOLV>
0

>  <SCORE.SYSTEM.norm>
0

>  <SCORE.heavy>
27

>  <SCORE.norm>
0.598455

>  <RMSD>
35.782

$$$$
ligand
 OpenBabel11021811473D
libRbt.so/2013.1/901 2013/11/27
 27 29  0  0  0  0  0  0  0  0999 V2000
   37.9358   23.0064   16.5302 N   0  0  0  0  0  0  0  0  0  0  0  0
   38.8748   23.8200   15.7612 C   0  0  2  0  0  0  0  0  0  0  0  0
   40.1349   24.2139   16.5346 C   0  0  0  0  0  0  0  0  0  0  0  0
   41.1819   23.7909   16.1716 O   0  0  0  0  0  0  0  0  0  0  0  0
   38.2335   25.0064   15.0114 C   0  0  0  0  0  0  0  0  0  0  0  0
   38.9379   25.5849   13.7527 C   0  0  0  0  0  0  0  0  0  0  0  0
   40.3129   26.2604   14.0007 C   0  0  2  0  0  0  0  0  0  0  0  0
   41.4074   25.2971   14.1189 N   0  0  0  0  0  0  0  0  0  0  0  0
   40.2640   27.2797   15.1805 C   0  0  0  0  0  0  0  0  0  0  0  0
   39.9241   28.7751   14.8633 C   0  0  1  0  0  0  0  0  0  0  0  0
   40.7462   29.5014   13.9022 O   0  0  0  0  0  0  0  0  0  0  0  0
   38.4618   29.0876   14.4391 C   0  0  1  0  0  0  0  0  0  0  0  0
   37.4280   28.9035   15.4151 O   0  0  0  0  0  0  0  0  0  0  0  0
   38.5421   30.4363   13.6590 C   0  0  1  0  0  0  0  0  0  0  0  0
   37.9948   31.5835   14.2635 O   0  0  0  0  0  0  0  0  0  0  0  0
   40.0009   30.4704   13.1927 C   0  0  2  0  0  0  0  0  0  0  0  0
   40.1071   25.3925   17.3066 O   0  0  0  0  0  0  0  0  0  0  0  0
   39.7874   26.9702    9.0466 N   0  0  0  0  0  0  0  0  0  0  0  0
   39.5825   26.6960   10.4037 C   0  0  0  0  0  0  0  0  0  0  0  0
   39.6805   27.7697   11.3899 N   0  0  0  0  0  0  0  0  0  0  0  0
   39.9712   29.0464   10.9889 C   0  0  0  0  0  0  0  0  0  0  0  0
   40.1779   29.3133    9.6213 C   0  0  0  0  0  0  0  0  0  0  0  0
   40.0808   28.2427    8.6391 C   0  0  0  0  0  0  0  0  0  0  0  0
   40.2942   28.5182    7.2179 N   0  0  0  0  0  0  0  0  0  0  0  0
   40.4658   30.7199    9.4811 N   0  0  0  0  0  0  0  0  0  0  0  0
   40.4339   31.2972   10.7723 C   0  0  0  0  0  0  0  0  0  0  0  0
   40.1274   30.2776   11.7190 N   0  0  0  0  0  0  0  0  0  0  0  0
  2  1  1  1  0  0  0
  2  3  1  0  0  0  0
  2  5  1  0  0  0  0
  3  4  1  0  0  0  0
  3 17  1  0  0  0  0
  5  6  1  0  0  0  0
  7  6  1  1  0  0  0
  7  8  1  0  0  0  0
  7  9  1  0  0  0  0
 10  9  1  6  0  0  0
 10 11  1  0  0  0  0
 10 12  1  0  0  0  0
 11 16  1  0  0  0  0
 12 13  1  1  0  0  0
 12 14  1  0  0  0  0
 14 15  1  1  0  0  0
 14 16  1  0  0  0  0
 16 27  1  6  0  0  0
 18 19  2  0  0  0  0
 18 23  1  0  0  0  0
 19 20  1  0  0  0  0
 20 21  2  0  0  0  0
 21 22  1  0  0  0  0
 21 27  1  0  0  0  0
 22 23  2  0  0  0  0
 22 25  1  0  0  0  0
 23 24  1  0  0  0  0
 25 26  2  0  0  0  0
 26 27  1  0  0  0  0
M  END
>  <CHROM.1>
114.66852572,-155.42779443,-65.56622381,80.26164325,-90.75319710,-56.54396604
48.50842006,39.65874830,27.64867489,13.20277299,-1.83284383,1.34354832,-0.62350779

>  <Name>
ligand

>  <RI>
0

>  <Rbt.Current_Directory>
/home/itssahil/PROJECTS/Mol_Feturizer/New_Systems/rnas/3GX2

>  <Rbt.Executable>
rbdock ($Id: //depot/dev/client3/rdock/2013.1/src/exe/rbdock.cxx#4 $)

>  <Rbt.Library>
libRbt.so (2013.1, Build901 2013/11/27)

>  <Rbt.Parameter_File>
/export/apps/rDock/src/rDock_2013.1_src/data/scripts/dock_solv.prm

>  <Rbt.Receptor>
prm/blind_docking_60.prm

>  <SCORE>
13.996

>  <SCORE.INTER>
5.63104

>  <SCORE.INTER.CONST>
1

>  <SCORE.INTER.POLAR>
0

>  <SCORE.INTER.ROT>
7

>  <SCORE.INTER.SOLV>
12.4052

>  <SCORE.INTER.VDW>
-8.64772

>  <SCORE.INTER.norm>
0.208557

>  <SCORE.INTRA>
-0.035767

>  <SCORE.INTRA.DIHEDRAL>
-3.29335

>  <SCORE.INTRA.DIHEDRAL.0>
13.9704

>  <SCORE.INTRA.POLAR>
0

>  <SCORE.INTRA.POLAR.0>
0

>  <SCORE.INTRA.REPUL>
0

>  <SCORE.INTRA.REPUL.0>
0

>  <SCORE.INTRA.SOLV>
4.37025

>  <SCORE.INTRA.SOLV.lig_0>
-70.9758

>  <SCORE.INTRA.VDW>
-0.57422

>  <SCORE.INTRA.VDW.0>
-2.70686

>  <SCORE.INTRA.norm>
-0.0013247

>  <SCORE.RESTR>
8.4007

>  <SCORE.RESTR.CAVITY>
8.4007

>  <SCORE.RESTR.norm>
0.311137

>  <SCORE.SYSTEM>
0

>  <SCORE.SYSTEM.CONST>
0

>  <SCORE.SYSTEM.DIHEDRAL>
0

>  <SCORE.SYSTEM.SOLV>
0

>  <SCORE.SYSTEM.norm>
0

>  <SCORE.heavy>
27

>  <SCORE.norm>
0.518369

>  <RMSD>
35.815

$$$$
ligand
 OpenBabel11021811473D
libRbt.so/2013.1/901 2013/11/27
 27 29  0  0  0  0  0  0  0  0999 V2000
   37.7276   24.5019   16.4823 N   0  0  0  0  0  0  0  0  0  0  0  0
   38.8886   23.7606   15.9949 C   0  0  2  0  0  0  0  0  0  0  0  0
   40.1996   24.1285   16.6929 C   0  0  0  0  0  0  0  0  0  0  0  0
   41.2236   23.8061   16.1886 O   0  0  0  0  0  0  0  0  0  0  0  0
   39.0193   23.7081   14.4582 C   0  0  0  0  0  0  0  0  0  0  0  0
   39.1070   25.0347   13.6535 C   0  0  0  0  0  0  0  0  0  0  0  0
   40.3307   25.9351   13.9702 C   0  0  2  0  0  0  0  0  0  0  0  0
   41.5919   25.1943   13.9934 N   0  0  0  0  0  0  0  0  0  0  0  0
   40.1076   26.8047   15.2458 C   0  0  0  0  0  0  0  0  0  0  0  0
   39.8481   28.3389   15.0691 C   0  0  1  0  0  0  0  0  0  0  0  0
   40.6983   29.1030   14.1632 O   0  0  0  0  0  0  0  0  0  0  0  0
   38.4007   28.7677   14.6988 C   0  0  1  0  0  0  0  0  0  0  0  0
   37.3697   28.5531   15.6714 O   0  0  0  0  0  0  0  0  0  0  0  0
   38.5471   30.1748   14.0410 C   0  0  1  0  0  0  0  0  0  0  0  0
   38.0718   31.2911   14.7545 O   0  0  0  0  0  0  0  0  0  0  0  0
   40.0000   30.1711   13.5555 C   0  0  2  0  0  0  0  0  0  0  0  0
   40.1968   25.2068   17.6001 O   0  0  0  0  0  0  0  0  0  0  0  0
   39.8496   27.0132    9.1405 N   0  0  0  0  0  0  0  0  0  0  0  0
   39.6922   26.6198   10.4744 C   0  0  0  0  0  0  0  0  0  0  0  0
   39.7637   27.6133   11.5434 N   0  0  0  0  0  0  0  0  0  0  0  0
   39.9830   28.9312   11.2429 C   0  0  0  0  0  0  0  0  0  0  0  0
   40.1421   29.3183    9.8980 C   0  0  0  0  0  0  0  0  0  0  0  0
   40.0716   28.3275    8.8332 C   0  0  0  0  0  0  0  0  0  0  0  0
   40.2357   28.7279    7.4353 N   0  0  0  0  0  0  0  0  0  0  0  0
   40.3590   30.7442    9.8680 N   0  0  0  0  0  0  0  0  0  0  0  0
   40.3321   31.2124   11.2028 C   0  0  0  0  0  0  0  0  0  0  0  0
   40.0985   30.1052   12.0686 N   0  0  0  0  0  0  0  0  0  0  0  0
  2  1  1  6  0  0  0
  2  3  1  0  0  0  0
  2  5  1  0  0  0  0
  3  4  1  0  0  0  0
  3 17  1  0  0  0  0
  5  6  1  0  0  0  0
  7  6  1  1  0  0  0
  7  8  1  0  0  0  0
  7  9  1  0  0  0  0
 10  9  1  6  0  0  0
 10 11  1  0  0  0  0
 10 12  1  0  0  0  0
 11 16  1  0  0  0  0
 12 13  1  1  0  0  0
 12 14  1  0  0  0  0
 14 15  1  1  0  0  0
 14 16  1  0  0  0  0
 16 27  1  6  0  0  0
 18 19  2  0  0  0  0
 18 23  1  0  0  0  0
 19 20  1  0  0  0  0
 20 21  2  0  0  0  0
 21 22  1  0  0  0  0
 21 27  1  0  0  0  0
 22 23  2  0  0  0  0
 22 25  1  0  0  0  0
 23 24  1  0  0  0  0
 25 26  2  0  0  0  0
 26 27  1  0  0  0  0
M  END
>  <CHROM.1>
-164.03446180,57.93484455,61.90772441,47.48251263,-106.74819851,-46.14644890
42.50768677,39.68847685,27.49059648,13.37094709,1.75606971,-1.31641563,2.43029116

>  <Name>
ligand

>  <RI>
0

>  <Rbt.Current_Directory>
/home/itssahil/PROJECTS/Mol_Feturizer/New_Systems/rnas/3GX2

>  <Rbt.Executable>
rbdock ($Id: //depot/dev/client3/rdock/2013.1/src/exe/rbdock.cxx#4 $)

>  <Rbt.Library>
libRbt.so (2013.1, Build901 2013/11/27)

>  <Rbt.Parameter_File>
/export/apps/rDock/src/rDock_2013.1_src/data/scripts/dock_solv.prm

>  <Rbt.Receptor>
prm/blind_docking_60.prm

>  <SCORE>
14.2685

>  <SCORE.INTER>
6.14946

>  <SCORE.INTER.CONST>
1

>  <SCORE.INTER.POLAR>
0

>  <SCORE.INTER.ROT>
7

>  <SCORE.INTER.SOLV>
14.4137

>  <SCORE.INTER.VDW>
-8.97159

>  <SCORE.INTER.norm>
0.227758

>  <SCORE.INTRA>
0.940804

>  <SCORE.INTRA.DIHEDRAL>
-3.38853

>  <SCORE.INTRA.DIHEDRAL.0>
13.9704

>  <SCORE.INTRA.POLAR>
0

>  <SCORE.INTRA.POLAR.0>
0

>  <SCORE.INTRA.REPUL>
0

>  <SCORE.INTRA.REPUL.0>
0

>  <SCORE.INTRA.SOLV>
6.11582

>  <SCORE.INTRA.SOLV.lig_0>
-70.9758

>  <SCORE.INTRA.VDW>
-0.422842

>  <SCORE.INTRA.VDW.0>
-2.70686

>  <SCORE.INTRA.norm>
0.0348446

>  <SCORE.RESTR>
7.1782

>  <SCORE.RESTR.CAVITY>
7.1782

>  <SCORE.RESTR.norm>
0.265859

>  <SCORE.SYSTEM>
0

>  <SCORE.SYSTEM.CONST>
0

>  <SCORE.SYSTEM.DIHEDRAL>
0

>  <SCORE.SYSTEM.SOLV>
0

>  <SCORE.SYSTEM.norm>
0

>  <SCORE.heavy>
27

>  <SCORE.norm>
0.528462

>  <RMSD>
35.822

$$$$
ligand
 OpenBabel11021811473D
libRbt.so/2013.1/901 2013/11/27
 27 29  0  0  0  0  0  0  0  0999 V2000
   39.3248   22.4675   16.2117 N   0  0  0  0  0  0  0  0  0  0  0  0
   39.3008   23.4222   15.1058 C   0  0  2  0  0  0  0  0  0  0  0  0
   40.6808   23.9528   14.7119 C   0  0  0  0  0  0  0  0  0  0  0  0
   41.5336   23.9892   15.5355 O   0  0  0  0  0  0  0  0  0  0  0  0
   38.2437   24.5380   15.2423 C   0  0  0  0  0  0  0  0  0  0  0  0
   38.3208   25.5201   16.4443 C   0  0  0  0  0  0  0  0  0  0  0  0
   39.6895   26.2204   16.6553 C   0  0  2  0  0  0  0  0  0  0  0  0
   39.6984   27.1162   17.8118 N   0  0  0  0  0  0  0  0  0  0  0  0
   40.2112   26.8988   15.3511 C   0  0  0  0  0  0  0  0  0  0  0  0
   39.8886   28.4129   15.1151 C   0  0  1  0  0  0  0  0  0  0  0  0
   40.7027   29.1739   14.1741 O   0  0  0  0  0  0  0  0  0  0  0  0
   38.4232   28.7675   14.7371 C   0  0  1  0  0  0  0  0  0  0  0  0
   37.4063   28.5504   15.7240 O   0  0  0  0  0  0  0  0  0  0  0  0
   38.5091   30.1519   14.0229 C   0  0  1  0  0  0  0  0  0  0  0  0
   37.9920   31.2756   14.6943 O   0  0  0  0  0  0  0  0  0  0  0  0
   39.9587   30.1877   13.5288 C   0  0  2  0  0  0  0  0  0  0  0  0
   41.0482   23.9219   13.3518 O   0  0  0  0  0  0  0  0  0  0  0  0
   39.7975   26.8668    9.2354 N   0  0  0  0  0  0  0  0  0  0  0  0
   39.6444   26.5235   10.5835 C   0  0  0  0  0  0  0  0  0  0  0  0
   39.7183   27.5563   11.6144 N   0  0  0  0  0  0  0  0  0  0  0  0
   39.9357   28.8621   11.2642 C   0  0  0  0  0  0  0  0  0  0  0  0
   40.0906   29.1988    9.9053 C   0  0  0  0  0  0  0  0  0  0  0  0
   40.0176   28.1689    8.8785 C   0  0  0  0  0  0  0  0  0  0  0  0
   40.1774   28.5169    7.4661 N   0  0  0  0  0  0  0  0  0  0  0  0
   40.3063   30.6227    9.8214 N   0  0  0  0  0  0  0  0  0  0  0  0
   40.2830   31.1405   11.1378 C   0  0  0  0  0  0  0  0  0  0  0  0
   40.0528   30.0663   12.0451 N   0  0  0  0  0  0  0  0  0  0  0  0
  2  1  1  1  0  0  0
  2  3  1  0  0  0  0
  2  5  1  0  0  0  0
  3  4  1  0  0  0  0
  3 17  1  0  0  0  0
  5  6  1  0  0  0  0
  7  6  1  6  0  0  0
  7  8  1  0  0  0  0
  7  9  1  0  0  0  0
 10  9  1  6  0  0  0
 10 11  1  0  0  0  0
 10 12  1  0  0  0  0
 11 16  1  0  0  0  0
 12 13  1  1  0  0  0
 12 14  1  0  0  0  0
 14 15  1  1  0  0  0
 14 16  1  0  0  0  0
 16 27  1  6  0  0  0
 18 19  2  0  0  0  0
 18 23  1  0  0  0  0
 19 20  1  0  0  0  0
 20 21  2  0  0  0  0
 21 22  1  0  0  0  0
 21 27  1  0  0  0  0
 22 23  2  0  0  0  0
 22 25  1  0  0  0  0
 23 24  1  0  0  0  0
 25 26  2  0  0  0  0
 26 27  1  0  0  0  0
M  END
>  <CHROM.1>
-27.21616465,61.47260744,52.35938163,-179.24194563,93.79438196,159.85246123
44.80914070,39.66119204,27.45037027,13.43624427,-1.72927723,1.31443983,-0.72251162

>  <Name>
ligand

>  <RI>
0

>  <Rbt.Current_Directory>
/home/itssahil/PROJECTS/Mol_Feturizer/New_Systems/rnas/3GX2

>  <Rbt.Executable>
rbdock ($Id: //depot/dev/client3/rdock/2013.1/src/exe/rbdock.cxx#4 $)

>  <Rbt.Library>
libRbt.so (2013.1, Build901 2013/11/27)

>  <Rbt.Parameter_File>
/export/apps/rDock/src/rDock_2013.1_src/data/scripts/dock_solv.prm

>  <Rbt.Receptor>
prm/blind_docking_60.prm

>  <SCORE>
15.1812

>  <SCORE.INTER>
5.72918

>  <SCORE.INTER.CONST>
1

>  <SCORE.INTER.POLAR>
0

>  <SCORE.INTER.ROT>
7

>  <SCORE.INTER.SOLV>
15.188

>  <SCORE.INTER.VDW>
-9.50988

>  <SCORE.INTER.norm>
0.212192

>  <SCORE.INTRA>
-0.991243

>  <SCORE.INTRA.DIHEDRAL>
-4.61225

>  <SCORE.INTRA.DIHEDRAL.0>
13.9704

>  <SCORE.INTRA.POLAR>
0

>  <SCORE.INTRA.POLAR.0>
0

>  <SCORE.INTRA.REPUL>
0

>  <SCORE.INTRA.REPUL.0>
0

>  <SCORE.INTRA.SOLV>
3.23099

>  <SCORE.INTRA.SOLV.lig_0>
-70.9758

>  <SCORE.INTRA.VDW>
-0.300612

>  <SCORE.INTRA.VDW.0>
-2.70686

>  <SCORE.INTRA.norm>
-0.0367127

>  <SCORE.RESTR>
10.4433

>  <SCORE.RESTR.CAVITY>
10.4433

>  <SCORE.RESTR.norm>
0.386787

>  <SCORE.SYSTEM>
0

>  <SCORE.SYSTEM.CONST>
0

>  <SCORE.SYSTEM.DIHEDRAL>
0

>  <SCORE.SYSTEM.SOLV>
0

>  <SCORE.SYSTEM.norm>
0

>  <SCORE.heavy>
27

>  <SCORE.norm>
0.562266

>  <RMSD>
35.833

$$$$
ligand
 OpenBabel11021811473D
libRbt.so/2013.1/901 2013/11/27
 27 29  0  0  0  0  0  0  0  0999 V2000
   39.7778   22.4688   15.4327 N   0  0  0  0  0  0  0  0  0  0  0  0
   40.5098   23.6408   15.9077 C   0  0  2  0  0  0  0  0  0  0  0  0
   39.7101   24.5287   16.8633 C   0  0  0  0  0  0  0  0  0  0  0  0
   38.6847   24.1199   17.2973 O   0  0  0  0  0  0  0  0  0  0  0  0
   41.2286   24.4417   14.8018 C   0  0  0  0  0  0  0  0  0  0  0  0
   40.3877   25.2520   13.7764 C   0  0  0  0  0  0  0  0  0  0  0  0
   39.3820   26.2669   14.3822 C   0  0  2  0  0  0  0  0  0  0  0  0
   38.4781   26.8378   13.3837 N   0  0  0  0  0  0  0  0  0  0  0  0
   40.0903   27.3475   15.2562 C   0  0  0  0  0  0  0  0  0  0  0  0
   39.9413   28.8527   14.8508 C   0  0  1  0  0  0  0  0  0  0  0  0
   40.8032   29.3954   13.8069 O   0  0  0  0  0  0  0  0  0  0  0  0
   38.5150   29.3388   14.4696 C   0  0  1  0  0  0  0  0  0  0  0  0
   37.5184   29.3625   15.4998 O   0  0  0  0  0  0  0  0  0  0  0  0
   38.7373   30.6114   13.5949 C   0  0  1  0  0  0  0  0  0  0  0  0
   38.3840   31.8595   14.1412 O   0  0  0  0  0  0  0  0  0  0  0  0
   40.1607   30.4123   13.0646 C   0  0  2  0  0  0  0  0  0  0  0  0
   40.3919   25.5416   17.5667 O   0  0  0  0  0  0  0  0  0  0  0  0
   39.7596   26.6010    9.2175 N   0  0  0  0  0  0  0  0  0  0  0  0
   39.6677   26.4252   10.6029 C   0  0  0  0  0  0  0  0  0  0  0  0
   39.8016   27.5735   11.4965 N   0  0  0  0  0  0  0  0  0  0  0  0
   40.0154   28.8240   10.9809 C   0  0  0  0  0  0  0  0  0  0  0  0
   40.1085   28.9918    9.5855 C   0  0  0  0  0  0  0  0  0  0  0  0
   39.9757   27.8469    8.6956 C   0  0  0  0  0  0  0  0  0  0  0  0
   40.0712   28.0194    7.2456 N   0  0  0  0  0  0  0  0  0  0  0  0
   40.3347   30.3915    9.3198 N   0  0  0  0  0  0  0  0  0  0  0  0
   40.3798   31.0645   10.5634 C   0  0  0  0  0  0  0  0  0  0  0  0
   40.1823   30.1114   11.6039 N   0  0  0  0  0  0  0  0  0  0  0  0
  2  1  1  6  0  0  0
  2  3  1  0  0  0  0
  2  5  1  0  0  0  0
  3  4  1  0  0  0  0
  3 17  1  0  0  0  0
  5  6  1  0  0  0  0
  7  6  1  6  0  0  0
  7  8  1  0  0  0  0
  7  9  1  0  0  0  0
 10  9  1  6  0  0  0
 10 11  1  0  0  0  0
 10 12  1  0  0  0  0
 11 16  1  0  0  0  0
 12 13  1  1  0  0  0
 12 14  1  0  0  0  0
 14 15  1  1  0  0  0
 14 16  1  0  0  0  0
 16 27  1  6  0  0  0
 18 19  2  0  0  0  0
 18 23  1  0  0  0  0
 19 20  1  0  0  0  0
 20 21  2  0  0  0  0
 21 22  1  0  0  0  0
 21 27  1  0  0  0  0
 22 23  2  0  0  0  0
 22 25  1  0  0  0  0
 23 24  1  0  0  0  0
 25 26  2  0  0  0  0
 26 27  1  0  0  0  0
M  END
>  <CHROM.1>
11.23436184,69.89469949,54.51114758,-170.83659192,120.17514448,-81.95076309
38.54430443,39.72060311,27.61801525,13.20856591,-1.64604381,1.36559425,-0.83259666

>  <Name>
ligand

>  <RI>
0

>  <Rbt.Current_Directory>
/home/itssahil/PROJECTS/Mol_Feturizer/New_Systems/rnas/3GX2

>  <Rbt.Executable>
rbdock ($Id: //depot/dev/client3/rdock/2013.1/src/exe/rbdock.cxx#4 $)

>  <Rbt.Library>
libRbt.so (2013.1, Build901 2013/11/27)

>  <Rbt.Parameter_File>
/export/apps/rDock/src/rDock_2013.1_src/data/scripts/dock_solv.prm

>  <Rbt.Receptor>
prm/blind_docking_60.prm

>  <SCORE>
12.9001

>  <SCORE.INTER>
1.50577

>  <SCORE.INTER.CONST>
1

>  <SCORE.INTER.POLAR>
0

>  <SCORE.INTER.ROT>
7

>  <SCORE.INTER.SOLV>
11.9031

>  <SCORE.INTER.VDW>
-11.2305

>  <SCORE.INTER.norm>
0.0557691

>  <SCORE.INTRA>
3.33447

>  <SCORE.INTRA.DIHEDRAL>
-1.3403

>  <SCORE.INTRA.DIHEDRAL.0>
13.9704

>  <SCORE.INTRA.POLAR>
0

>  <SCORE.INTRA.POLAR.0>
0

>  <SCORE.INTRA.REPUL>
0

>  <SCORE.INTRA.REPUL.0>
0

>  <SCORE.INTRA.SOLV>
6.30451

>  <SCORE.INTRA.SOLV.lig_0>
-70.9758

>  <SCORE.INTRA.VDW>
0.852357

>  <SCORE.INTRA.VDW.0>
-2.70686

>  <SCORE.INTRA.norm>
0.123499

>  <SCORE.RESTR>
8.05986

>  <SCORE.RESTR.CAVITY>
8.05986

>  <SCORE.RESTR.norm>
0.298513

>  <SCORE.SYSTEM>
0

>  <SCORE.SYSTEM.CONST>
0

>  <SCORE.SYSTEM.DIHEDRAL>
0

>  <SCORE.SYSTEM.SOLV>
0

>  <SCORE.SYSTEM.norm>
0

>  <SCORE.heavy>
27

>  <SCORE.norm>
0.477781

>  <RMSD>
35.848

$$$$
ligand
 OpenBabel11021811473D
libRbt.so/2013.1/901 2013/11/27
 27 29  0  0  0  0  0  0  0  0999 V2000
   39.3209   25.4219   17.3215 N   0  0  0  0  0  0  0  0  0  0  0  0
   38.7789   24.5106   16.3161 C   0  0  2  0  0  0  0  0  0  0  0  0
   39.7472   23.4041   15.8928 C   0  0  0  0  0  0  0  0  0  0  0  0
   39.4618   22.7210   14.9661 O   0  0  0  0  0  0  0  0  0  0  0  0
   38.0989   25.2058   15.1180 C   0  0  0  0  0  0  0  0  0  0  0  0
   38.9321   25.5217   13.8448 C   0  0  0  0  0  0  0  0  0  0  0  0
   40.3014   26.2099   14.0893 C   0  0  2  0  0  0  0  0  0  0  0  0
   41.3981   25.2550   14.2495 N   0  0  0  0  0  0  0  0  0  0  0  0
   40.2342   27.2637   15.2374 C   0  0  0  0  0  0  0  0  0  0  0  0
   39.9070   28.7504   14.8697 C   0  0  1  0  0  0  0  0  0  0  0  0
   40.7344   29.4364   13.8838 O   0  0  0  0  0  0  0  0  0  0  0  0
   38.4471   29.0611   14.4363 C   0  0  1  0  0  0  0  0  0  0  0  0
   37.4128   28.9193   15.4189 O   0  0  0  0  0  0  0  0  0  0  0  0
   38.5382   30.3817   13.6107 C   0  0  1  0  0  0  0  0  0  0  0  0
   38.0016   31.5535   14.1762 O   0  0  0  0  0  0  0  0  0  0  0  0
   39.9967   30.3872   13.1423 C   0  0  2  0  0  0  0  0  0  0  0  0
   41.1024   23.5218   16.2605 O   0  0  0  0  0  0  0  0  0  0  0  0
   39.7680   26.7460    9.1202 N   0  0  0  0  0  0  0  0  0  0  0  0
   39.5652   26.5194   10.4864 C   0  0  0  0  0  0  0  0  0  0  0  0
   39.6674   27.6264   11.4346 N   0  0  0  0  0  0  0  0  0  0  0  0
   39.9598   28.8878   10.9891 C   0  0  0  0  0  0  0  0  0  0  0  0
   40.1643   29.1068    9.6128 C   0  0  0  0  0  0  0  0  0  0  0  0
   40.0631   28.0030    8.6684 C   0  0  0  0  0  0  0  0  0  0  0  0
   40.2742   28.2288    7.2381 N   0  0  0  0  0  0  0  0  0  0  0  0
   40.4548   30.5071    9.4234 N   0  0  0  0  0  0  0  0  0  0  0  0
   40.4266   31.1288   10.6939 C   0  0  0  0  0  0  0  0  0  0  0  0
   40.1199   30.1432   11.6760 N   0  0  0  0  0  0  0  0  0  0  0  0
  2  1  1  6  0  0  0
  2  3  1  0  0  0  0
  2  5  1  0  0  0  0
  3  4  1  0  0  0  0
  3 17  1  0  0  0  0
  5  6  1  0  0  0  0
  7  6  1  1  0  0  0
  7  8  1  0  0  0  0
  7  9  1  0  0  0  0
 10  9  1  6  0  0  0
 10 11  1  0  0  0  0
 10 12  1  0  0  0  0
 11 16  1  0  0  0  0
 12 13  1  1  0  0  0
 12 14  1  0  0  0  0
 14 15  1  1  0  0  0
 14 16  1  0  0  0  0
 16 27  1  6  0  0  0
 18 19  2  0  0  0  0
 18 23  1  0  0  0  0
 19 20  1  0  0  0  0
 20 21  2  0  0  0  0
 21 22  1  0  0  0  0
 21 27  1  0  0  0  0
 22 23  2  0  0  0  0
 22 25  1  0  0  0  0
 23 24  1  0  0  0  0
 25 26  2  0  0  0  0
 26 27  1  0  0  0  0
M  END
>  <CHROM.1>
-170.67397274,92.41119088,-48.03172044,90.72964920,-91.36506771,-55.32018473
48.12027458,39.64850407,27.53145370,13.14475050,1.75807013,-1.32672739,2.47284998

>  <Name>
ligand

>  <RI>
0

>  <Rbt.Current_Directory>
/home/itssahil/PROJECTS/Mol_Feturizer/New_Systems/rnas/3GX2

>  <Rbt.Executable>
rbdock ($Id: //depot/dev/client3/rdock/2013.1/src/exe/rbdock.cxx#4 $)

>  <Rbt.Library>
libRbt.so (2013.1, Build901 2013/11/27)

>  <Rbt.Parameter_File>
/export/apps/rDock/src/rDock_2013.1_src/data/scripts/dock_solv.prm

>  <Rbt.Receptor>
prm/blind_docking_60.prm

>  <SCORE>
17.2327

>  <SCORE.INTER>
5.56093

>  <SCORE.INTER.CONST>
1

>  <SCORE.INTER.POLAR>
0

>  <SCORE.INTER.ROT>
7

>  <SCORE.INTER.SOLV>
12.2267

>  <SCORE.INTER.VDW>
-8.63495

>  <SCORE.INTER.norm>
0.20596

>  <SCORE.INTRA>
3.5427

>  <SCORE.INTRA.DIHEDRAL>
-0.597325

>  <SCORE.INTRA.DIHEDRAL.0>
13.9704

>  <SCORE.INTRA.POLAR>
0

>  <SCORE.INTRA.POLAR.0>
0

>  <SCORE.INTRA.REPUL>
0

>  <SCORE.INTRA.REPUL.0>
0

>  <SCORE.INTRA.SOLV>
7.46002

>  <SCORE.INTRA.SOLV.lig_0>
-70.9758

>  <SCORE.INTRA.VDW>
0.11135

>  <SCORE.INTRA.VDW.0>
-2.70686

>  <SCORE.INTRA.norm>
0.131211

>  <SCORE.RESTR>
8.12907

>  <SCORE.RESTR.CAVITY>
8.12907

>  <SCORE.RESTR.norm>
0.301077

>  <SCORE.SYSTEM>
0

>  <SCORE.SYSTEM.CONST>
0

>  <SCORE.SYSTEM.DIHEDRAL>
0

>  <SCORE.SYSTEM.SOLV>
0

>  <SCORE.SYSTEM.norm>
0

>  <SCORE.heavy>
27

>  <SCORE.norm>
0.638248

>  <RMSD>
35.914

$$$$
ligand
 OpenBabel11021811473D
libRbt.so/2013.1/901 2013/11/27
 27 29  0  0  0  0  0  0  0  0999 V2000
   38.9010   23.9884   13.4862 N   0  0  0  0  0  0  0  0  0  0  0  0
   40.1897   23.8562   14.1619 C   0  0  2  0  0  0  0  0  0  0  0  0
   40.0816   23.4609   15.6361 C   0  0  0  0  0  0  0  0  0  0  0  0
   41.0550   23.5102   16.3121 O   0  0  0  0  0  0  0  0  0  0  0  0
   41.1642   25.0286   13.9232 C   0  0  0  0  0  0  0  0  0  0  0  0
   40.6204   26.4844   13.9167 C   0  0  0  0  0  0  0  0  0  0  0  0
   40.2205   27.0603   15.3012 C   0  0  2  0  0  0  0  0  0  0  0  0
   39.8920   26.0211   16.2769 N   0  0  0  0  0  0  0  0  0  0  0  0
   39.1217   28.1615   15.1858 C   0  0  0  0  0  0  0  0  0  0  0  0
   39.5105   29.5432   14.5596 C   0  0  1  0  0  0  0  0  0  0  0  0
   40.5569   29.5935   13.5449 O   0  0  0  0  0  0  0  0  0  0  0  0
   38.3534   30.3959   13.9679 C   0  0  1  0  0  0  0  0  0  0  0  0
   37.3723   30.9142   14.8755 O   0  0  0  0  0  0  0  0  0  0  0  0
   39.0366   31.3618   12.9508 C   0  0  1  0  0  0  0  0  0  0  0  0
   39.0980   32.7296   13.2766 O   0  0  0  0  0  0  0  0  0  0  0  0
   40.3342   30.6249   12.6045 C   0  0  2  0  0  0  0  0  0  0  0  0
   38.8178   23.5230   16.2563 O   0  0  0  0  0  0  0  0  0  0  0  0
   39.5031   26.3199    9.4008 N   0  0  0  0  0  0  0  0  0  0  0  0
   39.3841   26.3799   10.7940 C   0  0  0  0  0  0  0  0  0  0  0  0
   39.6488   27.6330   11.4975 N   0  0  0  0  0  0  0  0  0  0  0  0
   40.0120   28.7513   10.7957 C   0  0  0  0  0  0  0  0  0  0  0  0
   40.1313   28.6817    9.3939 C   0  0  0  0  0  0  0  0  0  0  0  0
   39.8681   27.4324    8.6936 C   0  0  0  0  0  0  0  0  0  0  0  0
   39.9906   27.3584    7.2372 N   0  0  0  0  0  0  0  0  0  0  0  0
   40.5232   29.9849    8.9154 N   0  0  0  0  0  0  0  0  0  0  0  0
   40.6416   30.8384   10.0375 C   0  0  0  0  0  0  0  0  0  0  0  0
   40.3272   30.0936   11.2107 N   0  0  0  0  0  0  0  0  0  0  0  0
  2  1  1  1  0  0  0
  2  3  1  0  0  0  0
  2  5  1  0  0  0  0
  3  4  1  0  0  0  0
  3 17  1  0  0  0  0
  5  6  1  0  0  0  0
  7  6  1  6  0  0  0
  7  8  1  0  0  0  0
  7  9  1  0  0  0  0
 10  9  1  6  0  0  0
 10 11  1  0  0  0  0
 10 12  1  0  0  0  0
 11 16  1  0  0  0  0
 12 13  1  1  0  0  0
 12 14  1  0  0  0  0
 14 15  1  1  0  0  0
 14 16  1  0  0  0  0
 16 27  1  6  0  0  0
 18 19  2  0  0  0  0
 18 23  1  0  0  0  0
 19 20  1  0  0  0  0
 20 21  2  0  0  0  0
 21 22  1  0  0  0  0
 21 27  1  0  0  0  0
 22 23  2  0  0  0  0
 22 25  1  0  0  0  0
 23 24  1  0  0  0  0
 25 26  2  0  0  0  0
 26 27  1  0  0  0  0
M  END
>  <CHROM.1>
-169.67068019,40.71142058,72.79597117,-23.89821965,-70.35197677,30.38866593
25.33912280,39.77634303,27.75274292,12.85430361,-1.41389881,1.40305908,-0.84124631

>  <Name>
ligand

>  <RI>
0

>  <Rbt.Current_Directory>
/home/itssahil/PROJECTS/Mol_Feturizer/New_Systems/rnas/3GX2

>  <Rbt.Executable>
rbdock ($Id: //depot/dev/client3/rdock/2013.1/src/exe/rbdock.cxx#4 $)

>  <Rbt.Library>
libRbt.so (2013.1, Build901 2013/11/27)

>  <Rbt.Parameter_File>
/export/apps/rDock/src/rDock_2013.1_src/data/scripts/dock_solv.prm

>  <Rbt.Receptor>
prm/blind_docking_60.prm

>  <SCORE>
12.8737

>  <SCORE.INTER>
1.23323

>  <SCORE.INTER.CONST>
1

>  <SCORE.INTER.POLAR>
0

>  <SCORE.INTER.ROT>
7

>  <SCORE.INTER.SOLV>
9.85253

>  <SCORE.INTER.VDW>
-10.7287

>  <SCORE.INTER.norm>
0.0456751

>  <SCORE.INTRA>
3.6085

>  <SCORE.INTRA.DIHEDRAL>
-1.14005

>  <SCORE.INTRA.DIHEDRAL.0>
13.9704

>  <SCORE.INTRA.POLAR>
0

>  <SCORE.INTRA.POLAR.0>
0

>  <SCORE.INTRA.REPUL>
0

>  <SCORE.INTRA.REPUL.0>
0

>  <SCORE.INTRA.SOLV>
6.944

>  <SCORE.INTRA.SOLV.lig_0>
-70.9758

>  <SCORE.INTRA.VDW>
0.70652

>  <SCORE.INTRA.VDW.0>
-2.70686

>  <SCORE.INTRA.norm>
0.133648

>  <SCORE.RESTR>
8.03199

>  <SCORE.RESTR.CAVITY>
8.03199

>  <SCORE.RESTR.norm>
0.297481

>  <SCORE.SYSTEM>
0

>  <SCORE.SYSTEM.CONST>
0

>  <SCORE.SYSTEM.DIHEDRAL>
0

>  <SCORE.SYSTEM.SOLV>
0

>  <SCORE.SYSTEM.norm>
0

>  <SCORE.heavy>
27

>  <SCORE.norm>
0.476804

>  <RMSD>
35.918

$$$$
ligand
 OpenBabel11021811473D
libRbt.so/2013.1/901 2013/11/27
 27 29  0  0  0  0  0  0  0  0999 V2000
   38.8353   23.6897   13.7076 N   0  0  0  0  0  0  0  0  0  0  0  0
   40.0837   23.7814   14.4613 C   0  0  2  0  0  0  0  0  0  0  0  0
   39.8899   23.8886   15.9753 C   0  0  0  0  0  0  0  0  0  0  0  0
   40.8491   23.9730   16.6679 O   0  0  0  0  0  0  0  0  0  0  0  0
   41.0938   24.8094   13.9098 C   0  0  0  0  0  0  0  0  0  0  0  0
   40.7563   26.3248   13.9794 C   0  0  0  0  0  0  0  0  0  0  0  0
   39.4241   26.6864   14.6885 C   0  0  2  0  0  0  0  0  0  0  0  0
   38.2859   26.7362   13.7708 N   0  0  0  0  0  0  0  0  0  0  0  0
   39.5553   27.9655   15.5716 C   0  0  0  0  0  0  0  0  0  0  0  0
   39.7862   29.3429   14.8633 C   0  0  1  0  0  0  0  0  0  0  0  0
   40.7500   29.4272   13.7718 O   0  0  0  0  0  0  0  0  0  0  0  0
   38.5251   30.0758   14.3262 C   0  0  1  0  0  0  0  0  0  0  0  0
   37.5729   30.5580   15.2833 O   0  0  0  0  0  0  0  0  0  0  0  0
   39.0540   31.0440   13.2230 C   0  0  1  0  0  0  0  0  0  0  0  0
   39.0286   32.4259   13.4883 O   0  0  0  0  0  0  0  0  0  0  0  0
   40.3785   30.3942   12.8102 C   0  0  2  0  0  0  0  0  0  0  0  0
   38.6548   24.3615   16.4617 O   0  0  0  0  0  0  0  0  0  0  0  0
   39.2886   25.9872    9.8307 N   0  0  0  0  0  0  0  0  0  0  0  0
   39.2071   26.1158   11.2219 C   0  0  0  0  0  0  0  0  0  0  0  0
   39.5413   27.3871   11.8600 N   0  0  0  0  0  0  0  0  0  0  0  0
   39.9333   28.4557   11.0986 C   0  0  0  0  0  0  0  0  0  0  0  0
   40.0145   28.3172    9.6992 C   0  0  0  0  0  0  0  0  0  0  0  0
   39.6819   27.0497    9.0641 C   0  0  0  0  0  0  0  0  0  0  0  0
   39.7648   26.9042    7.6104 N   0  0  0  0  0  0  0  0  0  0  0  0
   40.4484   29.5792    9.1516 N   0  0  0  0  0  0  0  0  0  0  0  0
   40.6303   30.4771   10.2297 C   0  0  0  0  0  0  0  0  0  0  0  0
   40.3145   29.8008   11.4432 N   0  0  0  0  0  0  0  0  0  0  0  0
  2  1  1  6  0  0  0
  2  3  1  0  0  0  0
  2  5  1  0  0  0  0
  3  4  1  0  0  0  0
  3 17  1  0  0  0  0
  5  6  1  0  0  0  0
  7  6  1  6  0  0  0
  7  8  1  0  0  0  0
  7  9  1  0  0  0  0
 10  9  1  6  0  0  0
 10 11  1  0  0  0  0
 10 12  1  0  0  0  0
 11 16  1  0  0  0  0
 12 13  1  1  0  0  0
 12 14  1  0  0  0  0
 14 15  1  1  0  0  0
 14 16  1  0  0  0  0
 16 27  1  6  0  0  0
 18 19  2  0  0  0  0
 18 23  1  0  0  0  0
 19 20  1  0  0  0  0
 20 21  2  0  0  0  0
 21 22  1  0  0  0  0
 21 27  1  0  0  0  0
 22 23  2  0  0  0  0
 22 25  1  0  0  0  0
 23 24  1  0  0  0  0
 25 26  2  0  0  0  0
 26 27  1  0  0  0  0
M  END
>  <CHROM.1>
-179.70293520,67.26040045,3.23160383,-90.35551686,67.71150450,-43.88877868
32.83727015,39.66730274,27.60971924,12.99945288,-1.59377461,1.44297857,-0.68294908

>  <Name>
ligand

>  <RI>
0

>  <Rbt.Current_Directory>
/home/itssahil/PROJECTS/Mol_Feturizer/New_Systems/rnas/3GX2

>  <Rbt.Executable>
rbdock ($Id: //depot/dev/client3/rdock/2013.1/src/exe/rbdock.cxx#4 $)

>  <Rbt.Library>
libRbt.so (2013.1, Build901 2013/11/27)

>  <Rbt.Parameter_File>
/export/apps/rDock/src/rDock_2013.1_src/data/scripts/dock_solv.prm

>  <Rbt.Receptor>
prm/blind_docking_60.prm

>  <SCORE>
15.906

>  <SCORE.INTER>
2.0841

>  <SCORE.INTER.CONST>
1

>  <SCORE.INTER.POLAR>
0

>  <SCORE.INTER.ROT>
7

>  <SCORE.INTER.SOLV>
11.8386

>  <SCORE.INTER.VDW>
-10.8235

>  <SCORE.INTER.norm>
0.0771888

>  <SCORE.INTRA>
5.83405

>  <SCORE.INTRA.DIHEDRAL>
0.81076

>  <SCORE.INTRA.DIHEDRAL.0>
13.9704

>  <SCORE.INTRA.POLAR>
0

>  <SCORE.INTRA.POLAR.0>
0

>  <SCORE.INTRA.REPUL>
0

>  <SCORE.INTRA.REPUL.0>
0

>  <SCORE.INTRA.SOLV>
8.3789

>  <SCORE.INTRA.SOLV.lig_0>
-70.9758

>  <SCORE.INTRA.VDW>
1.23922

>  <SCORE.INTRA.VDW.0>
-2.70686

>  <SCORE.INTRA.norm>
0.216076

>  <SCORE.RESTR>
7.98787

>  <SCORE.RESTR.CAVITY>
7.98787

>  <SCORE.RESTR.norm>
0.295847

>  <SCORE.SYSTEM>
0

>  <SCORE.SYSTEM.CONST>
0

>  <SCORE.SYSTEM.DIHEDRAL>
0

>  <SCORE.SYSTEM.SOLV>
0

>  <SCORE.SYSTEM.norm>
0

>  <SCORE.heavy>
27

>  <SCORE.norm>
0.589112

>  <RMSD>
35.967

$$$$
ligand
 OpenBabel11021811473D
libRbt.so/2013.1/901 2013/11/27
 27 29  0  0  0  0  0  0  0  0999 V2000
   40.4926   22.3073   14.5230 N   0  0  0  0  0  0  0  0  0  0  0  0
   40.2851   23.4207   15.4462 C   0  0  2  0  0  0  0  0  0  0  0  0
   38.8630   23.5100   16.0036 C   0  0  0  0  0  0  0  0  0  0  0  0
   37.9962   22.9184   15.4509 O   0  0  0  0  0  0  0  0  0  0  0  0
   40.8221   24.7785   14.9470 C   0  0  0  0  0  0  0  0  0  0  0  0
   39.9114   26.0354   15.0255 C   0  0  0  0  0  0  0  0  0  0  0  0
   39.9779   26.8337   16.3546 C   0  0  2  0  0  0  0  0  0  0  0  0
   39.5884   26.0365   17.5177 N   0  0  0  0  0  0  0  0  0  0  0  0
   39.2203   28.1942   16.2631 C   0  0  0  0  0  0  0  0  0  0  0  0
   39.7120   29.2554   15.2217 C   0  0  1  0  0  0  0  0  0  0  0  0
   40.5987   28.8337   14.1432 O   0  0  0  0  0  0  0  0  0  0  0  0
   38.6184   30.1054   14.5164 C   0  0  1  0  0  0  0  0  0  0  0  0
   37.8628   31.0224   15.3184 O   0  0  0  0  0  0  0  0  0  0  0  0
   39.2820   30.6130   13.1988 C   0  0  1  0  0  0  0  0  0  0  0  0
   39.5873   31.9832   13.0974 O   0  0  0  0  0  0  0  0  0  0  0  0
   40.3959   29.5876   12.9649 C   0  0  2  0  0  0  0  0  0  0  0  0
   38.6943   23.8566   17.3590 O   0  0  0  0  0  0  0  0  0  0  0  0
   40.7797   28.9133    7.5904 N   0  0  0  0  0  0  0  0  0  0  0  0
   41.2222   30.0057    8.3451 C   0  0  0  0  0  0  0  0  0  0  0  0
   41.0339   30.0182    9.7941 N   0  0  0  0  0  0  0  0  0  0  0  0
   40.4259   28.9611   10.4169 C   0  0  0  0  0  0  0  0  0  0  0  0
   39.9817   27.8665    9.6497 C   0  0  0  0  0  0  0  0  0  0  0  0
   40.1691   27.8550    8.2056 C   0  0  0  0  0  0  0  0  0  0  0  0
   39.7092   26.7183    7.4070 N   0  0  0  0  0  0  0  0  0  0  0  0
   39.3845   26.9075   10.5466 N   0  0  0  0  0  0  0  0  0  0  0  0
   39.4693   27.4324   11.8576 C   0  0  0  0  0  0  0  0  0  0  0  0
   40.1127   28.7023   11.7984 N   0  0  0  0  0  0  0  0  0  0  0  0
  2  1  1  6  0  0  0
  2  3  1  0  0  0  0
  2  5  1  0  0  0  0
  3  4  1  0  0  0  0
  3 17  1  0  0  0  0
  5  6  1  0  0  0  0
  7  6  1  6  0  0  0
  7  8  1  0  0  0  0
  7  9  1  0  0  0  0
 10  9  1  6  0  0  0
 10 11  1  0  0  0  0
 10 12  1  0  0  0  0
 11 16  1  0  0  0  0
 12 13  1  1  0  0  0
 12 14  1  0  0  0  0
 14 15  1  1  0  0  0
 14 16  1  0  0  0  0
 16 27  1  6  0  0  0
 18 19  2  0  0  0  0
 18 23  1  0  0  0  0
 19 20  1  0  0  0  0
 20 21  2  0  0  0  0
 21 22  1  0  0  0  0
 21 27  1  0  0  0  0
 22 23  2  0  0  0  0
 22 25  1  0  0  0  0
 23 24  1  0  0  0  0
 25 26  2  0  0  0  0
 26 27  1  0  0  0  0
M  END
>  <CHROM.1>
-17.04923051,131.68999216,88.33302535,-60.10864966,-61.52910519,16.35551742
-150.26836974,39.75365151,27.48525123,13.18509371,-2.31290678,1.40611050
-0.21413924

>  <Name>
ligand

>  <RI>
0

>  <Rbt.Current_Directory>
/home/itssahil/PROJECTS/Mol_Feturizer/New_Systems/rnas/3GX2

>  <Rbt.Executable>
rbdock ($Id: //depot/dev/client3/rdock/2013.1/src/exe/rbdock.cxx#4 $)

>  <Rbt.Library>
libRbt.so (2013.1, Build901 2013/11/27)

>  <Rbt.Parameter_File>
/export/apps/rDock/src/rDock_2013.1_src/data/scripts/dock_solv.prm

>  <Rbt.Receptor>
prm/blind_docking_60.prm

>  <SCORE>
20.0137

>  <SCORE.INTER>
4.76712

>  <SCORE.INTER.CONST>
1

>  <SCORE.INTER.POLAR>
0

>  <SCORE.INTER.ROT>
7

>  <SCORE.INTER.SOLV>
17.3888

>  <SCORE.INTER.VDW>
-10.8849

>  <SCORE.INTER.norm>
0.17656

>  <SCORE.INTRA>
5.06296

>  <SCORE.INTRA.DIHEDRAL>
2.51983

>  <SCORE.INTRA.DIHEDRAL.0>
13.9704

>  <SCORE.INTRA.POLAR>
0

>  <SCORE.INTRA.POLAR.0>
0

>  <SCORE.INTRA.REPUL>
0

>  <SCORE.INTRA.REPUL.0>
0

>  <SCORE.INTRA.SOLV>
3.57761

>  <SCORE.INTRA.SOLV.lig_0>
-70.9758

>  <SCORE.INTRA.VDW>
2.01425

>  <SCORE.INTRA.VDW.0>
-2.70686

>  <SCORE.INTRA.norm>
0.187517

>  <SCORE.RESTR>
10.1836

>  <SCORE.RESTR.CAVITY>
10.1836

>  <SCORE.RESTR.norm>
0.37717

>  <SCORE.SYSTEM>
0

>  <SCORE.SYSTEM.CONST>
0

>  <SCORE.SYSTEM.DIHEDRAL>
0

>  <SCORE.SYSTEM.SOLV>
0

>  <SCORE.SYSTEM.norm>
0

>  <SCORE.heavy>
27

>  <SCORE.norm>
0.741248

>  <RMSD>
36.028

$$$$
ligand
 OpenBabel11021811473D
libRbt.so/2013.1/901 2013/11/27
 27 29  0  0  0  0  0  0  0  0999 V2000
   37.4855   25.6429   11.6464 N   0  0  0  0  0  0  0  0  0  0  0  0
   37.7506   27.0617   11.4192 C   0  0  2  0  0  0  0  0  0  0  0  0
   38.8149   27.3330   10.3539 C   0  0  0  0  0  0  0  0  0  0  0  0
   38.8881   28.4203    9.8856 O   0  0  0  0  0  0  0  0  0  0  0  0
   37.9603   27.8905   12.7038 C   0  0  0  0  0  0  0  0  0  0  0  0
   37.5505   29.3895   12.7210 C   0  0  0  0  0  0  0  0  0  0  0  0
   37.9227   30.1750   14.0066 C   0  0  2  0  0  0  0  0  0  0  0  0
   36.9274   31.1855   14.3646 N   0  0  0  0  0  0  0  0  0  0  0  0
   39.3760   30.7390   13.9522 C   0  0  0  0  0  0  0  0  0  0  0  0
   40.5395   29.7705   13.5513 C   0  0  1  0  0  0  0  0  0  0  0  0
   40.8355   28.6251   14.4043 O   0  0  0  0  0  0  0  0  0  0  0  0
   40.5002   29.1842   12.1124 C   0  0  1  0  0  0  0  0  0  0  0  0
   40.6757   30.0903   11.0155 O   0  0  0  0  0  0  0  0  0  0  0  0
   41.3654   27.8875   12.1758 C   0  0  1  0  0  0  0  0  0  0  0  0
   42.6077   27.8884   11.5143 O   0  0  0  0  0  0  0  0  0  0  0  0
   41.3195   27.5232   13.6630 C   0  0  2  0  0  0  0  0  0  0  0  0
   39.9453   26.4931   10.3060 O   0  0  0  0  0  0  0  0  0  0  0  0
   38.9681   24.3450   17.3855 N   0  0  0  0  0  0  0  0  0  0  0  0
   39.7061   25.5133   17.6073 C   0  0  0  0  0  0  0  0  0  0  0  0
   40.2712   26.2472   16.4772 N   0  0  0  0  0  0  0  0  0  0  0  0
   40.0788   25.7949   15.1991 C   0  0  0  0  0  0  0  0  0  0  0  0
   39.3365   24.6171   14.9848 C   0  0  0  0  0  0  0  0  0  0  0  0
   38.7742   23.8859   16.1116 C   0  0  0  0  0  0  0  0  0  0  0  0
   38.0019   22.6627   15.8910 N   0  0  0  0  0  0  0  0  0  0  0  0
   39.2910   24.3721   13.5640 N   0  0  0  0  0  0  0  0  0  0  0  0
   40.0125   25.4076   12.9247 C   0  0  0  0  0  0  0  0  0  0  0  0
   40.5063   26.2995   13.9200 N   0  0  0  0  0  0  0  0  0  0  0  0
  2  1  1  1  0  0  0
  2  3  1  0  0  0  0
  2  5  1  0  0  0  0
  3  4  1  0  0  0  0
  3 17  1  0  0  0  0
  5  6  1  0  0  0  0
  7  6  1  6  0  0  0
  7  8  1  0  0  0  0
  7  9  1  0  0  0  0
 10  9  1  1  0  0  0
 10 11  1  0  0  0  0
 10 12  1  0  0  0  0
 11 16  1  0  0  0  0
 12 13  1  6  0  0  0
 12 14  1  0  0  0  0
 14 15  1  1  0  0  0
 14 16  1  0  0  0  0
 16 27  1  6  0  0  0
 18 19  2  0  0  0  0
 18 23  1  0  0  0  0
 19 20  1  0  0  0  0
 20 21  2  0  0  0  0
 21 22  1  0  0  0  0
 21 27  1  0  0  0  0
 22 23  2  0  0  0  0
 22 25  1  0  0  0  0
 23 24  1  0  0  0  0
 25 26  2  0  0  0  0
 26 27  1  0  0  0  0
M  END
>  <CHROM.1>
163.27898352,-149.51701776,-174.35839386,-144.96399152,-49.61011189,-63.05508558
-46.42769541,39.48124582,27.26688960,13.38921104,-2.18725085,1.47036937,-0.10444326

>  <Name>
ligand

>  <RI>
0

>  <Rbt.Current_Directory>
/home/itssahil/PROJECTS/Mol_Feturizer/New_Systems/rnas/3GX2

>  <Rbt.Executable>
rbdock ($Id: //depot/dev/client3/rdock/2013.1/src/exe/rbdock.cxx#4 $)

>  <Rbt.Library>
libRbt.so (2013.1, Build901 2013/11/27)

>  <Rbt.Parameter_File>
/export/apps/rDock/src/rDock_2013.1_src/data/scripts/dock_solv.prm

>  <Rbt.Receptor>
prm/blind_docking_60.prm

>  <SCORE>
17.3415

>  <SCORE.INTER>
6.68989

>  <SCORE.INTER.CONST>
1

>  <SCORE.INTER.POLAR>
0

>  <SCORE.INTER.ROT>
7

>  <SCORE.INTER.SOLV>
9.49999

>  <SCORE.INTER.VDW>
-6.9734

>  <SCORE.INTER.norm>
0.247774

>  <SCORE.INTRA>
0.22065

>  <SCORE.INTRA.DIHEDRAL>
-2.89605

>  <SCORE.INTRA.DIHEDRAL.0>
13.9704

>  <SCORE.INTRA.POLAR>
0

>  <SCORE.INTRA.POLAR.0>
0

>  <SCORE.INTRA.REPUL>
0

>  <SCORE.INTRA.REPUL.0>
0

>  <SCORE.INTRA.SOLV>
3.42631

>  <SCORE.INTRA.SOLV.lig_0>
-70.9758

>  <SCORE.INTRA.VDW>
-0.0444832

>  <SCORE.INTRA.VDW.0>
-2.70686

>  <SCORE.INTRA.norm>
0.00817222

>  <SCORE.RESTR>
10.4309

>  <SCORE.RESTR.CAVITY>
10.4309

>  <SCORE.RESTR.norm>
0.38633

>  <SCORE.SYSTEM>
0

>  <SCORE.SYSTEM.CONST>
0

>  <SCORE.SYSTEM.DIHEDRAL>
0

>  <SCORE.SYSTEM.SOLV>
0

>  <SCORE.SYSTEM.norm>
0

>  <SCORE.heavy>
27

>  <SCORE.norm>
0.642276

>  <RMSD>
36.044

$$$$
ligand
 OpenBabel11021811473D
libRbt.so/2013.1/901 2013/11/27
 27 29  0  0  0  0  0  0  0  0999 V2000
   39.4861   23.0122   13.1630 N   0  0  0  0  0  0  0  0  0  0  0  0
   40.4084   23.6893   14.0717 C   0  0  2  0  0  0  0  0  0  0  0  0
   40.1732   23.3691   15.5494 C   0  0  0  0  0  0  0  0  0  0  0  0
   39.5038   22.4308   15.8295 O   0  0  0  0  0  0  0  0  0  0  0  0
   40.5830   25.1989   13.8037 C   0  0  0  0  0  0  0  0  0  0  0  0
   39.5214   26.1979   14.3422 C   0  0  0  0  0  0  0  0  0  0  0  0
   39.6337   26.5531   15.8487 C   0  0  2  0  0  0  0  0  0  0  0  0
   38.9790   25.5729   16.7151 N   0  0  0  0  0  0  0  0  0  0  0  0
   39.1935   28.0206   16.1422 C   0  0  0  0  0  0  0  0  0  0  0  0
   39.6588   29.1509   15.1633 C   0  0  1  0  0  0  0  0  0  0  0  0
   40.5769   28.8183   14.0800 O   0  0  0  0  0  0  0  0  0  0  0  0
   38.5434   29.9932   14.4833 C   0  0  1  0  0  0  0  0  0  0  0  0
   37.7411   30.8391   15.3174 O   0  0  0  0  0  0  0  0  0  0  0  0
   39.2060   30.5915   13.2038 C   0  0  1  0  0  0  0  0  0  0  0  0
   39.4593   31.9757   13.1759 O   0  0  0  0  0  0  0  0  0  0  0  0
   40.3622   29.6225   12.9376 C   0  0  2  0  0  0  0  0  0  0  0  0
   41.0981   23.8529   16.4960 O   0  0  0  0  0  0  0  0  0  0  0  0
   40.9882   29.1690    7.5627 N   0  0  0  0  0  0  0  0  0  0  0  0
   41.3978   30.2278    8.3812 C   0  0  0  0  0  0  0  0  0  0  0  0
   41.1440   30.1812    9.8194 N   0  0  0  0  0  0  0  0  0  0  0  0
   40.5067   29.1014   10.3698 C   0  0  0  0  0  0  0  0  0  0  0  0
   40.0961   28.0409    9.5387 C   0  0  0  0  0  0  0  0  0  0  0  0
   40.3487   28.0883    8.1054 C   0  0  0  0  0  0  0  0  0  0  0  0
   39.9237   26.9871    7.2404 N   0  0  0  0  0  0  0  0  0  0  0  0
   39.4572   27.0478   10.3673 N   0  0  0  0  0  0  0  0  0  0  0  0
   39.4834   27.5180   11.7014 C   0  0  0  0  0  0  0  0  0  0  0  0
   40.1308   28.7870   11.7238 N   0  0  0  0  0  0  0  0  0  0  0  0
  2  1  1  6  0  0  0
  2  3  1  0  0  0  0
  2  5  1  0  0  0  0
  3  4  1  0  0  0  0
  3 17  1  0  0  0  0
  5  6  1  0  0  0  0
  7  6  1  6  0  0  0
  7  8  1  0  0  0  0
  7  9  1  0  0  0  0
 10  9  1  6  0  0  0
 10 11  1  0  0  0  0
 10 12  1  0  0  0  0
 11 16  1  0  0  0  0
 12 13  1  1  0  0  0
 12 14  1  0  0  0  0
 14 15  1  1  0  0  0
 14 16  1  0  0  0  0
 16 27  1  6  0  0  0
 18 19  2  0  0  0  0
 18 23  1  0  0  0  0
 19 20  1  0  0  0  0
 20 21  2  0  0  0  0
 21 22  1  0  0  0  0
 21 27  1  0  0  0  0
 22 23  2  0  0  0  0
 22 25  1  0  0  0  0
 23 24  1  0  0  0  0
 25 26  2  0  0  0  0
 26 27  1  0  0  0  0
M  END
>  <CHROM.1>
15.73985668,81.09374388,78.98717380,-83.85358674,-42.43527591,-5.18124576
-147.32338303,39.89640017,27.52937707,12.89566011,-1.90463869,1.36431947
-0.56955115

>  <Name>
ligand

>  <RI>
0

>  <Rbt.Current_Directory>
/home/itssahil/PROJECTS/Mol_Feturizer/New_Systems/rnas/3GX2

>  <Rbt.Executable>
rbdock ($Id: //depot/dev/client3/rdock/2013.1/src/exe/rbdock.cxx#4 $)

>  <Rbt.Library>
libRbt.so (2013.1, Build901 2013/11/27)

>  <Rbt.Parameter_File>
/export/apps/rDock/src/rDock_2013.1_src/data/scripts/dock_solv.prm

>  <Rbt.Receptor>
prm/blind_docking_60.prm

>  <SCORE>
12.7692

>  <SCORE.INTER>
-0.810952

>  <SCORE.INTER.CONST>
1

>  <SCORE.INTER.POLAR>
0

>  <SCORE.INTER.ROT>
7

>  <SCORE.INTER.SOLV>
10.204

>  <SCORE.INTER.VDW>
-12.2086

>  <SCORE.INTER.norm>
-0.0300353

>  <SCORE.INTRA>
3.99896

>  <SCORE.INTRA.DIHEDRAL>
2.15263

>  <SCORE.INTRA.DIHEDRAL.0>
13.9704

>  <SCORE.INTRA.POLAR>
0

>  <SCORE.INTRA.POLAR.0>
0

>  <SCORE.INTRA.REPUL>
0

>  <SCORE.INTRA.REPUL.0>
0

>  <SCORE.INTRA.SOLV>
4.20442

>  <SCORE.INTRA.SOLV.lig_0>
-70.9758

>  <SCORE.INTRA.VDW>
0.820436

>  <SCORE.INTRA.VDW.0>
-2.70686

>  <SCORE.INTRA.norm>
0.14811

>  <SCORE.RESTR>
9.58117

>  <SCORE.RESTR.CAVITY>
9.58117

>  <SCORE.RESTR.norm>
0.354858

>  <SCORE.SYSTEM>
0

>  <SCORE.SYSTEM.CONST>
0

>  <SCORE.SYSTEM.DIHEDRAL>
0

>  <SCORE.SYSTEM.SOLV>
0

>  <SCORE.SYSTEM.norm>
0

>  <SCORE.heavy>
27

>  <SCORE.norm>
0.472933

>  <RMSD>
36.071

$$$$
ligand
 OpenBabel11021811473D
libRbt.so/2013.1/901 2013/11/27
 27 29  0  0  0  0  0  0  0  0999 V2000
   39.6866   22.6616   15.0206 N   0  0  0  0  0  0  0  0  0  0  0  0
   40.4539   23.7560   15.6110 C   0  0  2  0  0  0  0  0  0  0  0  0
   39.6928   24.5442   16.6790 C   0  0  0  0  0  0  0  0  0  0  0  0
   38.7640   24.0328   17.2108 O   0  0  0  0  0  0  0  0  0  0  0  0
   41.1697   24.6640   14.5891 C   0  0  0  0  0  0  0  0  0  0  0  0
   40.3276   25.5986   13.6766 C   0  0  0  0  0  0  0  0  0  0  0  0
   39.2602   26.4628   14.3992 C   0  0  2  0  0  0  0  0  0  0  0  0
   38.2144   26.9470   13.4983 N   0  0  0  0  0  0  0  0  0  0  0  0
   39.9025   27.5961   15.2573 C   0  0  0  0  0  0  0  0  0  0  0  0
   40.1051   29.0050   14.6043 C   0  0  1  0  0  0  0  0  0  0  0  0
   41.0494   29.1474   13.5019 O   0  0  0  0  0  0  0  0  0  0  0  0
   38.8265   29.7440   14.1193 C   0  0  1  0  0  0  0  0  0  0  0  0
   37.8848   30.1733   15.1113 O   0  0  0  0  0  0  0  0  0  0  0  0
   39.3254   30.7644   13.0497 C   0  0  1  0  0  0  0  0  0  0  0  0
   39.2880   32.1335   13.3738 O   0  0  0  0  0  0  0  0  0  0  0  0
   40.6504   30.1493   12.5883 C   0  0  2  0  0  0  0  0  0  0  0  0
   40.3576   25.5991   17.3353 O   0  0  0  0  0  0  0  0  0  0  0  0
   39.2932   25.9515    9.4224 N   0  0  0  0  0  0  0  0  0  0  0  0
   39.1921   26.0345   10.8159 C   0  0  0  0  0  0  0  0  0  0  0  0
   39.6082   27.2521   11.5082 N   0  0  0  0  0  0  0  0  0  0  0  0
   40.0959   28.3150   10.7957 C   0  0  0  0  0  0  0  0  0  0  0  0
   40.1960   28.2224    9.3938 C   0  0  0  0  0  0  0  0  0  0  0  0
   39.7820   27.0083    8.7045 C   0  0  0  0  0  0  0  0  0  0  0  0
   39.8843   26.9106    7.2480 N   0  0  0  0  0  0  0  0  0  0  0  0
   40.7358   29.4669    8.9030 N   0  0  0  0  0  0  0  0  0  0  0  0
   40.9624   30.3079   10.0179 C   0  0  0  0  0  0  0  0  0  0  0  0
   40.5706   29.6133   11.1986 N   0  0  0  0  0  0  0  0  0  0  0  0
  2  1  1  6  0  0  0
  2  3  1  0  0  0  0
  2  5  1  0  0  0  0
  3  4  1  0  0  0  0
  3 17  1  0  0  0  0
  5  6  1  0  0  0  0
  7  6  1  6  0  0  0
  7  8  1  0  0  0  0
  7  9  1  0  0  0  0
 10  9  1  6  0  0  0
 10 11  1  0  0  0  0
 10 12  1  0  0  0  0
 11 16  1  0  0  0  0
 12 13  1  1  0  0  0
 12 14  1  0  0  0  0
 14 15  1  1  0  0  0
 14 16  1  0  0  0  0
 16 27  1  6  0  0  0
 18 19  2  0  0  0  0
 18 23  1  0  0  0  0
 19 20  1  0  0  0  0
 20 21  2  0  0  0  0
 21 22  1  0  0  0  0
 21 27  1  0  0  0  0
 22 23  2  0  0  0  0
 22 25  1  0  0  0  0
 23 24  1  0  0  0  0
 25 26  2  0  0  0  0
 26 27  1  0  0  0  0
M  END
>  <CHROM.1>
20.95990891,69.58653996,49.16016997,-159.86161015,92.64472574,-66.12181511
38.32040406,39.81100043,27.48449434,12.99051382,-2.05997559,1.47955891,-0.46535588

>  <Name>
ligand

>  <RI>
0

>  <Rbt.Current_Directory>
/home/itssahil/PROJECTS/Mol_Feturizer/New_Systems/rnas/3GX2

>  <Rbt.Executable>
rbdock ($Id: //depot/dev/client3/rdock/2013.1/src/exe/rbdock.cxx#4 $)

>  <Rbt.Library>
libRbt.so (2013.1, Build901 2013/11/27)

>  <Rbt.Parameter_File>
/export/apps/rDock/src/rDock_2013.1_src/data/scripts/dock_solv.prm

>  <Rbt.Receptor>
prm/blind_docking_60.prm

>  <SCORE>
10.5761

>  <SCORE.INTER>
1.16065

>  <SCORE.INTER.CONST>
1

>  <SCORE.INTER.POLAR>
0

>  <SCORE.INTER.ROT>
7

>  <SCORE.INTER.SOLV>
11.3524

>  <SCORE.INTER.VDW>
-11.277

>  <SCORE.INTER.norm>
0.0429872

>  <SCORE.INTRA>
1.60286

>  <SCORE.INTRA.DIHEDRAL>
-3.72261

>  <SCORE.INTRA.DIHEDRAL.0>
13.9704

>  <SCORE.INTRA.POLAR>
0

>  <SCORE.INTRA.POLAR.0>
0

>  <SCORE.INTRA.REPUL>
0

>  <SCORE.INTRA.REPUL.0>
0

>  <SCORE.INTRA.SOLV>
5.92038

>  <SCORE.INTRA.SOLV.lig_0>
-70.9758

>  <SCORE.INTRA.VDW>
0.503979

>  <SCORE.INTRA.VDW.0>
-2.70686

>  <SCORE.INTRA.norm>
0.0593653

>  <SCORE.RESTR>
7.81259

>  <SCORE.RESTR.CAVITY>
7.81259

>  <SCORE.RESTR.norm>
0.289355

>  <SCORE.SYSTEM>
0

>  <SCORE.SYSTEM.CONST>
0

>  <SCORE.SYSTEM.DIHEDRAL>
0

>  <SCORE.SYSTEM.SOLV>
0

>  <SCORE.SYSTEM.norm>
0

>  <SCORE.heavy>
27

>  <SCORE.norm>
0.391708

>  <RMSD>
36.076

$$$$
ligand
 OpenBabel11021811473D
libRbt.so/2013.1/901 2013/11/27
 27 29  0  0  0  0  0  0  0  0999 V2000
   39.6281   22.6757   14.9686 N   0  0  0  0  0  0  0  0  0  0  0  0
   40.4573   23.6860   15.6219 C   0  0  2  0  0  0  0  0  0  0  0  0
   39.7481   24.4387   16.7496 C   0  0  0  0  0  0  0  0  0  0  0  0
   40.3486   25.2702   17.3453 O   0  0  0  0  0  0  0  0  0  0  0  0
   41.2115   24.6224   14.6547 C   0  0  0  0  0  0  0  0  0  0  0  0
   40.4052   25.5904   13.7447 C   0  0  0  0  0  0  0  0  0  0  0  0
   39.3638   26.4849   14.4685 C   0  0  2  0  0  0  0  0  0  0  0  0
   38.2907   26.9390   13.5840 N   0  0  0  0  0  0  0  0  0  0  0  0
   40.0362   27.6471   15.2624 C   0  0  0  0  0  0  0  0  0  0  0  0
   40.1153   29.0613   14.5947 C   0  0  1  0  0  0  0  0  0  0  0  0
   41.0344   29.2705   13.4817 O   0  0  0  0  0  0  0  0  0  0  0  0
   38.7755   29.6870   14.1156 C   0  0  1  0  0  0  0  0  0  0  0  0
   37.8105   30.0467   15.1129 O   0  0  0  0  0  0  0  0  0  0  0  0
   39.1782   30.7346   13.0319 C   0  0  1  0  0  0  0  0  0  0  0  0
   39.0304   32.0990   13.3438 O   0  0  0  0  0  0  0  0  0  0  0  0
   40.5454   30.2268   12.5630 C   0  0  2  0  0  0  0  0  0  0  0  0
   38.3400   24.4917   16.7388 O   0  0  0  0  0  0  0  0  0  0  0  0
   39.1950   26.0137    9.4144 N   0  0  0  0  0  0  0  0  0  0  0  0
   39.0518   26.1195   10.8026 C   0  0  0  0  0  0  0  0  0  0  0  0
   39.4730   27.3377   11.4908 N   0  0  0  0  0  0  0  0  0  0  0  0
   40.0069   28.3789   10.7795 C   0  0  0  0  0  0  0  0  0  0  0  0
   40.1493   28.2635    9.3829 C   0  0  0  0  0  0  0  0  0  0  0  0
   39.7300   27.0488    8.6978 C   0  0  0  0  0  0  0  0  0  0  0  0
   39.8763   26.9274    7.2468 N   0  0  0  0  0  0  0  0  0  0  0  0
   40.7322   29.4884    8.8923 N   0  0  0  0  0  0  0  0  0  0  0  0
   40.9422   30.3406   10.0019 C   0  0  0  0  0  0  0  0  0  0  0  0
   40.4977   29.6723   11.1791 N   0  0  0  0  0  0  0  0  0  0  0  0
  2  1  1  6  0  0  0
  2  3  1  0  0  0  0
  2  5  1  0  0  0  0
  3  4  1  0  0  0  0
  3 17  1  0  0  0  0
  5  6  1  0  0  0  0
  7  6  1  6  0  0  0
  7  8  1  0  0  0  0
  7  9  1  0  0  0  0
 10  9  1  6  0  0  0
 10 11  1  0  0  0  0
 10 12  1  0  0  0  0
 11 16  1  0  0  0  0
 12 13  1  1  0  0  0
 12 14  1  0  0  0  0
 14 15  1  1  0  0  0
 14 16  1  0  0  0  0
 16 27  1  6  0  0  0
 18 19  2  0  0  0  0
 18 23  1  0  0  0  0
 19 20  1  0  0  0  0
 20 21  2  0  0  0  0
 21 22  1  0  0  0  0
 21 27  1  0  0  0  0
 22 23  2  0  0  0  0
 22 25  1  0  0  0  0
 23 24  1  0  0  0  0
 25 26  2  0  0  0  0
 26 27  1  0  0  0  0
M  END
>  <CHROM.1>
179.33216050,65.33557528,51.93008898,-156.15707223,97.59351878,-71.59419120
44.80734374,39.75978173,27.50277594,12.97415975,-1.95416522,1.47048574,-0.56278285

>  <Name>
ligand

>  <RI>
0

>  <Rbt.Current_Directory>
/home/itssahil/PROJECTS/Mol_Feturizer/New_Systems/rnas/3GX2

>  <Rbt.Executable>
rbdock ($Id: //depot/dev/client3/rdock/2013.1/src/exe/rbdock.cxx#4 $)

>  <Rbt.Library>
libRbt.so (2013.1, Build901 2013/11/27)

>  <Rbt.Parameter_File>
/export/apps/rDock/src/rDock_2013.1_src/data/scripts/dock_solv.prm

>  <Rbt.Receptor>
prm/blind_docking_60.prm

>  <SCORE>
9.75994

>  <SCORE.INTER>
0.395985

>  <SCORE.INTER.CONST>
1

>  <SCORE.INTER.POLAR>
0

>  <SCORE.INTER.ROT>
7

>  <SCORE.INTER.SOLV>
10.5968

>  <SCORE.INTER.VDW>
-11.5349

>  <SCORE.INTER.norm>
0.0146661

>  <SCORE.INTRA>
1.43936

>  <SCORE.INTRA.DIHEDRAL>
-3.04133

>  <SCORE.INTRA.DIHEDRAL.0>
13.9704

>  <SCORE.INTRA.POLAR>
0

>  <SCORE.INTRA.POLAR.0>
0

>  <SCORE.INTRA.REPUL>
0

>  <SCORE.INTRA.REPUL.0>
0

>  <SCORE.INTRA.SOLV>
6.50538

>  <SCORE.INTRA.SOLV.lig_0>
-70.9758

>  <SCORE.INTRA.VDW>
-0.292666

>  <SCORE.INTRA.VDW.0>
-2.70686

>  <SCORE.INTRA.norm>
0.0533095

>  <SCORE.RESTR>
7.9246

>  <SCORE.RESTR.CAVITY>
7.9246

>  <SCORE.RESTR.norm>
0.293504

>  <SCORE.SYSTEM>
0

>  <SCORE.SYSTEM.CONST>
0

>  <SCORE.SYSTEM.DIHEDRAL>
0

>  <SCORE.SYSTEM.SOLV>
0

>  <SCORE.SYSTEM.norm>
0

>  <SCORE.heavy>
27

>  <SCORE.norm>
0.361479

>  <RMSD>
36.076

$$$$
ligand
 OpenBabel11021811473D
libRbt.so/2013.1/901 2013/11/27
 27 29  0  0  0  0  0  0  0  0999 V2000
   40.0285   22.4656   15.2832 N   0  0  0  0  0  0  0  0  0  0  0  0
   40.6377   23.6865   15.8059 C   0  0  2  0  0  0  0  0  0  0  0  0
   39.7539   24.4481   16.7959 C   0  0  0  0  0  0  0  0  0  0  0  0
   40.2513   25.2780   17.4821 O   0  0  0  0  0  0  0  0  0  0  0  0
   41.2668   24.6011   14.7341 C   0  0  0  0  0  0  0  0  0  0  0  0
   40.3434   25.3679   13.7469 C   0  0  0  0  0  0  0  0  0  0  0  0
   39.3006   26.3152   14.3977 C   0  0  2  0  0  0  0  0  0  0  0  0
   38.3403   26.8529   13.4339 N   0  0  0  0  0  0  0  0  0  0  0  0
   39.9721   27.4176   15.2734 C   0  0  0  0  0  0  0  0  0  0  0  0
   40.1194   28.8587   14.6785 C   0  0  1  0  0  0  0  0  0  0  0  0
   41.0273   29.0746   13.5576 O   0  0  0  0  0  0  0  0  0  0  0  0
   38.8088   29.5836   14.2628 C   0  0  1  0  0  0  0  0  0  0  0  0
   37.8856   29.9436   15.2988 O   0  0  0  0  0  0  0  0  0  0  0  0
   39.2499   30.6629   13.2263 C   0  0  1  0  0  0  0  0  0  0  0  0
   39.1869   32.0150   13.6119 O   0  0  0  0  0  0  0  0  0  0  0  0
   40.5763   30.1045   12.7011 C   0  0  2  0  0  0  0  0  0  0  0  0
   38.3682   24.5102   16.5479 O   0  0  0  0  0  0  0  0  0  0  0  0
   39.4583   25.9419    9.3980 N   0  0  0  0  0  0  0  0  0  0  0  0
   39.4297   25.9499   10.7973 C   0  0  0  0  0  0  0  0  0  0  0  0
   39.7633   27.1700   11.5289 N   0  0  0  0  0  0  0  0  0  0  0  0
   40.1026   28.3084   10.8476 C   0  0  0  0  0  0  0  0  0  0  0  0
   40.1307   28.2912    9.4395 C   0  0  0  0  0  0  0  0  0  0  0  0
   39.7990   27.0747    8.7111 C   0  0  0  0  0  0  0  0  0  0  0  0
   39.8266   27.0552    7.2481 N   0  0  0  0  0  0  0  0  0  0  0  0
   40.5166   29.6051    8.9860 N   0  0  0  0  0  0  0  0  0  0  0  0
   40.7231   30.4123   10.1294 C   0  0  0  0  0  0  0  0  0  0  0  0
   40.4699   29.6280   11.2917 N   0  0  0  0  0  0  0  0  0  0  0  0
  2  1  1  6  0  0  0
  2  3  1  0  0  0  0
  2  5  1  0  0  0  0
  3  4  1  0  0  0  0
  3 17  1  0  0  0  0
  5  6  1  0  0  0  0
  7  6  1  6  0  0  0
  7  8  1  0  0  0  0
  7  9  1  0  0  0  0
 10  9  1  6  0  0  0
 10 11  1  0  0  0  0
 10 12  1  0  0  0  0
 11 16  1  0  0  0  0
 12 13  1  1  0  0  0
 12 14  1  0  0  0  0
 14 15  1  1  0  0  0
 14 16  1  0  0  0  0
 16 27  1  6  0  0  0
 18 19  2  0  0  0  0
 18 23  1  0  0  0  0
 19 20  1  0  0  0  0
 20 21  2  0  0  0  0
 21 22  1  0  0  0  0
 21 27  1  0  0  0  0
 22 23  2  0  0  0  0
 22 25  1  0  0  0  0
 23 24  1  0  0  0  0
 25 26  2  0  0  0  0
 26 27  1  0  0  0  0
M  END
>  <CHROM.1>
164.21245440,70.25663561,57.91262918,-171.59133605,101.26407198,-67.69261390
33.83437235,39.80970992,27.43001196,13.04678348,-1.80820913,1.45990714,-0.71287033

>  <Name>
ligand

>  <RI>
0

>  <Rbt.Current_Directory>
/home/itssahil/PROJECTS/Mol_Feturizer/New_Systems/rnas/3GX2

>  <Rbt.Executable>
rbdock ($Id: //depot/dev/client3/rdock/2013.1/src/exe/rbdock.cxx#4 $)

>  <Rbt.Library>
libRbt.so (2013.1, Build901 2013/11/27)

>  <Rbt.Parameter_File>
/export/apps/rDock/src/rDock_2013.1_src/data/scripts/dock_solv.prm

>  <Rbt.Receptor>
prm/blind_docking_60.prm

>  <SCORE>
9.70992

>  <SCORE.INTER>
0.282119

>  <SCORE.INTER.CONST>
1

>  <SCORE.INTER.POLAR>
0

>  <SCORE.INTER.ROT>
7

>  <SCORE.INTER.SOLV>
12.8394

>  <SCORE.INTER.VDW>
-12.3584

>  <SCORE.INTER.norm>
0.0104489

>  <SCORE.INTRA>
1.58491

>  <SCORE.INTRA.DIHEDRAL>
-4.19692

>  <SCORE.INTRA.DIHEDRAL.0>
13.9704

>  <SCORE.INTRA.POLAR>
0

>  <SCORE.INTRA.POLAR.0>
0

>  <SCORE.INTRA.REPUL>
0

>  <SCORE.INTRA.REPUL.0>
0

>  <SCORE.INTRA.SOLV>
6.41063

>  <SCORE.INTRA.SOLV.lig_0>
-70.9758

>  <SCORE.INTRA.VDW>
0.478056

>  <SCORE.INTRA.VDW.0>
-2.70686

>  <SCORE.INTRA.norm>
0.0587004

>  <SCORE.RESTR>
7.84289

>  <SCORE.RESTR.CAVITY>
7.84289

>  <SCORE.RESTR.norm>
0.290477

>  <SCORE.SYSTEM>
0

>  <SCORE.SYSTEM.CONST>
0

>  <SCORE.SYSTEM.DIHEDRAL>
0

>  <SCORE.SYSTEM.SOLV>
0

>  <SCORE.SYSTEM.norm>
0

>  <SCORE.heavy>
27

>  <SCORE.norm>
0.359627

>  <RMSD>
36.082

$$$$
ligand
 OpenBabel11021811473D
libRbt.so/2013.1/901 2013/11/27
 27 29  0  0  0  0  0  0  0  0999 V2000
   40.8057   28.0992   15.0905 N   0  0  0  0  0  0  0  0  0  0  0  0
   39.5876   27.6125   15.7343 C   0  0  2  0  0  0  0  0  0  0  0  0
   39.7393   26.2417   16.3970 C   0  0  0  0  0  0  0  0  0  0  0  0
   40.2132   26.1831   17.4827 O   0  0  0  0  0  0  0  0  0  0  0  0
   38.3143   27.7254   14.8700 C   0  0  0  0  0  0  0  0  0  0  0  0
   38.1515   28.9317   13.9038 C   0  0  0  0  0  0  0  0  0  0  0  0
   38.7198   30.2834   14.4121 C   0  0  2  0  0  0  0  0  0  0  0  0
   37.7156   31.1054   15.0872 N   0  0  0  0  0  0  0  0  0  0  0  0
   39.4931   31.0535   13.2976 C   0  0  0  0  0  0  0  0  0  0  0  0
   40.4702   30.2506   12.3739 C   0  0  1  0  0  0  0  0  0  0  0  0
   40.9674   28.9550   12.8226 O   0  0  0  0  0  0  0  0  0  0  0  0
   40.0089   30.0046   10.9101 C   0  0  1  0  0  0  0  0  0  0  0  0
   39.8882   31.1423   10.0464 O   0  0  0  0  0  0  0  0  0  0  0  0
   40.8236   28.7645   10.4279 C   0  0  1  0  0  0  0  0  0  0  0  0
   41.8264   28.9672    9.4614 O   0  0  0  0  0  0  0  0  0  0  0  0
   41.1931   28.0710   11.7430 C   0  0  2  0  0  0  0  0  0  0  0  0
   38.9129   25.1887   15.9567 O   0  0  0  0  0  0  0  0  0  0  0  0
   40.6762   23.5316   14.6779 N   0  0  0  0  0  0  0  0  0  0  0  0
   41.5920   24.5718   14.8729 C   0  0  0  0  0  0  0  0  0  0  0  0
   41.5885   25.7270   13.9781 N   0  0  0  0  0  0  0  0  0  0  0  0
   40.6885   25.7954   12.9483 C   0  0  0  0  0  0  0  0  0  0  0  0
   39.7715   24.7433   12.7579 C   0  0  0  0  0  0  0  0  0  0  0  0
   39.7761   23.5921   13.6496 C   0  0  0  0  0  0  0  0  0  0  0  0
   38.8235   22.4985   13.4541 N   0  0  0  0  0  0  0  0  0  0  0  0
   38.9521   25.0683   11.6160 N   0  0  0  0  0  0  0  0  0  0  0  0
   39.3830   26.3207   11.1187 C   0  0  0  0  0  0  0  0  0  0  0  0
   40.4560   26.7880   11.9313 N   0  0  0  0  0  0  0  0  0  0  0  0
  2  1  1  6  0  0  0
  2  3  1  0  0  0  0
  2  5  1  0  0  0  0
  3  4  1  0  0  0  0
  3 17  1  0  0  0  0
  5  6  1  0  0  0  0
  7  6  1  6  0  0  0
  7  8  1  0  0  0  0
  7  9  1  0  0  0  0
 10  9  1  1  0  0  0
 10 11  1  0  0  0  0
 10 12  1  0  0  0  0
 11 16  1  0  0  0  0
 12 13  1  6  0  0  0
 12 14  1  0  0  0  0
 14 15  1  1  0  0  0
 14 16  1  0  0  0  0
 16 27  1  1  0  0  0
 18 19  2  0  0  0  0
 18 23  1  0  0  0  0
 19 20  1  0  0  0  0
 20 21  2  0  0  0  0
 21 22  1  0  0  0  0
 21 27  1  0  0  0  0
 22 23  2  0  0  0  0
 22 25  1  0  0  0  0
 23 24  1  0  0  0  0
 25 26  2  0  0  0  0
 26 27  1  0  0  0  0
M  END
>  <CHROM.1>
82.20936632,-34.81942105,-35.93456112,-93.60363464,-43.35020852,-19.87335517
-66.13557224,39.94638829,27.36057727,13.37782228,1.64209935,-1.27696989,2.68588485

>  <Name>
ligand

>  <RI>
0

>  <Rbt.Current_Directory>
/home/itssahil/PROJECTS/Mol_Feturizer/New_Systems/rnas/3GX2

>  <Rbt.Executable>
rbdock ($Id: //depot/dev/client3/rdock/2013.1/src/exe/rbdock.cxx#4 $)

>  <Rbt.Library>
libRbt.so (2013.1, Build901 2013/11/27)

>  <Rbt.Parameter_File>
/export/apps/rDock/src/rDock_2013.1_src/data/scripts/dock_solv.prm

>  <Rbt.Receptor>
prm/blind_docking_60.prm

>  <SCORE>
15.196

>  <SCORE.INTER>
1.28653

>  <SCORE.INTER.CONST>
1

>  <SCORE.INTER.POLAR>
0

>  <SCORE.INTER.ROT>
7

>  <SCORE.INTER.SOLV>
12.8762

>  <SCORE.INTER.VDW>
-11.701

>  <SCORE.INTER.norm>
0.0476494

>  <SCORE.INTRA>
4.62166

>  <SCORE.INTRA.DIHEDRAL>
2.84839

>  <SCORE.INTRA.DIHEDRAL.0>
13.9704

>  <SCORE.INTRA.POLAR>
0

>  <SCORE.INTRA.POLAR.0>
0

>  <SCORE.INTRA.REPUL>
0.191422

>  <SCORE.INTRA.REPUL.0>
0

>  <SCORE.INTRA.SOLV>
7.19738

>  <SCORE.INTRA.SOLV.lig_0>
-70.9758

>  <SCORE.INTRA.VDW>
-1.35833

>  <SCORE.INTRA.VDW.0>
-2.70686

>  <SCORE.INTRA.norm>
0.171173

>  <SCORE.RESTR>
9.2878

>  <SCORE.RESTR.CAVITY>
9.2878

>  <SCORE.RESTR.norm>
0.343993

>  <SCORE.SYSTEM>
0

>  <SCORE.SYSTEM.CONST>
0

>  <SCORE.SYSTEM.DIHEDRAL>
0

>  <SCORE.SYSTEM.SOLV>
0

>  <SCORE.SYSTEM.norm>
0

>  <SCORE.heavy>
27

>  <SCORE.norm>
0.562815

>  <RMSD>
36.083

$$$$
ligand
 OpenBabel11021811473D
libRbt.so/2013.1/901 2013/11/27
 27 29  0  0  0  0  0  0  0  0999 V2000
   38.5560   22.6577   16.3519 N   0  0  0  0  0  0  0  0  0  0  0  0
   39.0679   24.0063   16.1191 C   0  0  2  0  0  0  0  0  0  0  0  0
   39.4035   24.7740   17.3994 C   0  0  0  0  0  0  0  0  0  0  0  0
   40.3455   25.4947   17.4012 O   0  0  0  0  0  0  0  0  0  0  0  0
   38.2464   24.8414   15.1147 C   0  0  0  0  0  0  0  0  0  0  0  0
   38.9471   25.4325   13.8597 C   0  0  0  0  0  0  0  0  0  0  0  0
   40.3330   26.0855   14.1069 C   0  0  2  0  0  0  0  0  0  0  0  0
   41.3757   25.1079   14.4185 N   0  0  0  0  0  0  0  0  0  0  0  0
   40.2586   27.2520   15.1399 C   0  0  0  0  0  0  0  0  0  0  0  0
   40.1803   28.7215   14.6043 C   0  0  1  0  0  0  0  0  0  0  0  0
   41.0443   29.1213   13.4994 O   0  0  0  0  0  0  0  0  0  0  0  0
   38.7732   29.2502   14.2089 C   0  0  1  0  0  0  0  0  0  0  0  0
   37.8045   29.4198   15.2520 O   0  0  0  0  0  0  0  0  0  0  0  0
   39.0418   30.4262   13.2195 C   0  0  1  0  0  0  0  0  0  0  0  0
   38.7689   31.7353   13.6587 O   0  0  0  0  0  0  0  0  0  0  0  0
   40.4392   30.1026   12.6817 C   0  0  2  0  0  0  0  0  0  0  0  0
   38.3763   24.9931   18.3389 O   0  0  0  0  0  0  0  0  0  0  0  0
   39.3705   26.0944    9.1775 N   0  0  0  0  0  0  0  0  0  0  0  0
   39.2463   26.0625   10.5712 C   0  0  0  0  0  0  0  0  0  0  0  0
   39.5816   27.2440   11.3628 N   0  0  0  0  0  0  0  0  0  0  0  0
   40.0162   28.3853   10.7433 C   0  0  0  0  0  0  0  0  0  0  0  0
   40.1401   28.4083    9.3403 C   0  0  0  0  0  0  0  0  0  0  0  0
   39.8065   27.2302    8.5522 C   0  0  0  0  0  0  0  0  0  0  0  0
   39.9337   27.2525    7.0945 N   0  0  0  0  0  0  0  0  0  0  0  0
   40.6130   29.7160    8.9568 N   0  0  0  0  0  0  0  0  0  0  0  0
   40.7755   30.4789   10.1371 C   0  0  0  0  0  0  0  0  0  0  0  0
   40.4092   29.6731   11.2536 N   0  0  0  0  0  0  0  0  0  0  0  0
  2  1  1  1  0  0  0
  2  3  1  0  0  0  0
  2  5  1  0  0  0  0
  3  4  1  0  0  0  0
  3 17  1  0  0  0  0
  5  6  1  0  0  0  0
  7  6  1  1  0  0  0
  7  8  1  0  0  0  0
  7  9  1  0  0  0  0
 10  9  1  6  0  0  0
 10 11  1  0  0  0  0
 10 12  1  0  0  0  0
 11 16  1  0  0  0  0
 12 13  1  1  0  0  0
 12 14  1  0  0  0  0
 14 15  1  1  0  0  0
 14 16  1  0  0  0  0
 16 27  1  6  0  0  0
 18 19  2  0  0  0  0
 18 23  1  0  0  0  0
 19 20  1  0  0  0  0
 20 21  2  0  0  0  0
 21 22  1  0  0  0  0
 21 27  1  0  0  0  0
 22 23  2  0  0  0  0
 22 25  1  0  0  0  0
 23 24  1  0  0  0  0
 25 26  2  0  0  0  0
 26 27  1  0  0  0  0
M  END
>  <CHROM.1>
143.42500622,-123.14363290,-43.97009384,70.73584883,-98.16013878,-43.42361747
45.92423980,39.64264898,27.40292498,13.18384883,-2.87857672,1.45844331,0.24938818

>  <Name>
ligand

>  <RI>
0

>  <Rbt.Current_Directory>
/home/itssahil/PROJECTS/Mol_Feturizer/New_Systems/rnas/3GX2

>  <Rbt.Executable>
rbdock ($Id: //depot/dev/client3/rdock/2013.1/src/exe/rbdock.cxx#4 $)

>  <Rbt.Library>
libRbt.so (2013.1, Build901 2013/11/27)

>  <Rbt.Parameter_File>
/export/apps/rDock/src/rDock_2013.1_src/data/scripts/dock_solv.prm

>  <Rbt.Receptor>
prm/blind_docking_60.prm

>  <SCORE>
15.5351

>  <SCORE.INTER>
4.93947

>  <SCORE.INTER.CONST>
1

>  <SCORE.INTER.POLAR>
0

>  <SCORE.INTER.ROT>
7

>  <SCORE.INTER.SOLV>
12.4158

>  <SCORE.INTER.VDW>
-9.11229

>  <SCORE.INTER.norm>
0.182943

>  <SCORE.INTRA>
1.47533

>  <SCORE.INTRA.DIHEDRAL>
2.11676

>  <SCORE.INTRA.DIHEDRAL.0>
13.9704

>  <SCORE.INTRA.POLAR>
0

>  <SCORE.INTRA.POLAR.0>
0

>  <SCORE.INTRA.REPUL>
0

>  <SCORE.INTRA.REPUL.0>
0

>  <SCORE.INTRA.SOLV>
3.29128

>  <SCORE.INTRA.SOLV.lig_0>
-70.9758

>  <SCORE.INTRA.VDW>
-1.22869

>  <SCORE.INTRA.VDW.0>
-2.70686

>  <SCORE.INTRA.norm>
0.0546418

>  <SCORE.RESTR>
9.12035

>  <SCORE.RESTR.CAVITY>
9.12035

>  <SCORE.RESTR.norm>
0.337791

>  <SCORE.SYSTEM>
0

>  <SCORE.SYSTEM.CONST>
0

>  <SCORE.SYSTEM.DIHEDRAL>
0

>  <SCORE.SYSTEM.SOLV>
0

>  <SCORE.SYSTEM.norm>
0

>  <SCORE.heavy>
27

>  <SCORE.norm>
0.575376

>  <RMSD>
36.097

$$$$
ligand
 OpenBabel11021811473D
libRbt.so/2013.1/901 2013/11/27
 27 29  0  0  0  0  0  0  0  0999 V2000
   40.1336   22.1031   15.7896 N   0  0  0  0  0  0  0  0  0  0  0  0
   40.3481   23.5388   15.6231 C   0  0  2  0  0  0  0  0  0  0  0  0
   39.6189   24.4007   16.6558 C   0  0  0  0  0  0  0  0  0  0  0  0
   40.2370   25.2158   17.2561 O   0  0  0  0  0  0  0  0  0  0  0  0
   40.1715   24.0521   14.1786 C   0  0  0  0  0  0  0  0  0  0  0  0
   40.3876   25.5603   13.8723 C   0  0  0  0  0  0  0  0  0  0  0  0
   39.3938   26.5359   14.5571 C   0  0  2  0  0  0  0  0  0  0  0  0
   38.3203   26.9742   13.6652 N   0  0  0  0  0  0  0  0  0  0  0  0
   40.1234   27.7190   15.2650 C   0  0  0  0  0  0  0  0  0  0  0  0
   40.1112   29.1251   14.5756 C   0  0  1  0  0  0  0  0  0  0  0  0
   41.0203   29.3784   13.4636 O   0  0  0  0  0  0  0  0  0  0  0  0
   38.7351   29.6521   14.0809 C   0  0  1  0  0  0  0  0  0  0  0  0
   37.7428   29.9614   15.0681 O   0  0  0  0  0  0  0  0  0  0  0  0
   39.0727   30.7076   12.9827 C   0  0  1  0  0  0  0  0  0  0  0  0
   38.8321   32.0637   13.2726 O   0  0  0  0  0  0  0  0  0  0  0  0
   40.4733   30.2856   12.5279 C   0  0  2  0  0  0  0  0  0  0  0  0
   38.2238   24.5572   16.5339 O   0  0  0  0  0  0  0  0  0  0  0  0
   39.2042   26.0289    9.4042 N   0  0  0  0  0  0  0  0  0  0  0  0
   39.0128   26.1592   10.7845 C   0  0  0  0  0  0  0  0  0  0  0  0
   39.4183   27.3860   11.4667 N   0  0  0  0  0  0  0  0  0  0  0  0
   39.9846   28.4114   10.7575 C   0  0  0  0  0  0  0  0  0  0  0  0
   40.1754   28.2714    9.3689 C   0  0  0  0  0  0  0  0  0  0  0  0
   39.7717   27.0481    8.6898 C   0  0  0  0  0  0  0  0  0  0  0  0
   39.9683   26.9012    7.2472 N   0  0  0  0  0  0  0  0  0  0  0  0
   40.7843   29.4838    8.8789 N   0  0  0  0  0  0  0  0  0  0  0  0
   40.9612   30.3532    9.9809 C   0  0  0  0  0  0  0  0  0  0  0  0
   40.4705   29.7080   11.1526 N   0  0  0  0  0  0  0  0  0  0  0  0
  2  1  1  6  0  0  0
  2  3  1  0  0  0  0
  2  5  1  0  0  0  0
  3  4  1  0  0  0  0
  3 17  1  0  0  0  0
  5  6  1  0  0  0  0
  7  6  1  6  0  0  0
  7  8  1  0  0  0  0
  7  9  1  0  0  0  0
 10  9  1  6  0  0  0
 10 11  1  0  0  0  0
 10 12  1  0  0  0  0
 11 16  1  0  0  0  0
 12 13  1  1  0  0  0
 12 14  1  0  0  0  0
 14 15  1  1  0  0  0
 14 16  1  0  0  0  0
 16 27  1  6  0  0  0
 18 19  2  0  0  0  0
 18 23  1  0  0  0  0
 19 20  1  0  0  0  0
 20 21  2  0  0  0  0
 21 22  1  0  0  0  0
 21 27  1  0  0  0  0
 22 23  2  0  0  0  0
 22 25  1  0  0  0  0
 23 24  1  0  0  0  0
 25 26  2  0  0  0  0
 26 27  1  0  0  0  0
M  END
>  <CHROM.1>
128.49387826,-179.39671216,-63.99535741,-99.70834544,103.85699953,-78.34003118
49.39993778,39.70985223,27.46543688,12.96621566,-1.93636762,1.44892988,-0.53214283

>  <Name>
ligand

>  <RI>
0

>  <Rbt.Current_Directory>
/home/itssahil/PROJECTS/Mol_Feturizer/New_Systems/rnas/3GX2

>  <Rbt.Executable>
rbdock ($Id: //depot/dev/client3/rdock/2013.1/src/exe/rbdock.cxx#4 $)

>  <Rbt.Library>
libRbt.so (2013.1, Build901 2013/11/27)

>  <Rbt.Parameter_File>
/export/apps/rDock/src/rDock_2013.1_src/data/scripts/dock_solv.prm

>  <Rbt.Receptor>
prm/blind_docking_60.prm

>  <SCORE>
12.6279

>  <SCORE.INTER>
1.74549

>  <SCORE.INTER.CONST>
1

>  <SCORE.INTER.POLAR>
0

>  <SCORE.INTER.ROT>
7

>  <SCORE.INTER.SOLV>
13.2262

>  <SCORE.INTER.VDW>
-11.5117

>  <SCORE.INTER.norm>
0.064648

>  <SCORE.INTRA>
2.89036

>  <SCORE.INTRA.DIHEDRAL>
0.79158

>  <SCORE.INTRA.DIHEDRAL.0>
13.9704

>  <SCORE.INTRA.POLAR>
0

>  <SCORE.INTRA.POLAR.0>
0

>  <SCORE.INTRA.REPUL>
0

>  <SCORE.INTRA.REPUL.0>
0

>  <SCORE.INTRA.SOLV>
5.91637

>  <SCORE.INTRA.SOLV.lig_0>
-70.9758

>  <SCORE.INTRA.VDW>
-0.463615

>  <SCORE.INTRA.VDW.0>
-2.70686

>  <SCORE.INTRA.norm>
0.10705

>  <SCORE.RESTR>
7.992

>  <SCORE.RESTR.CAVITY>
7.992

>  <SCORE.RESTR.norm>
0.296

>  <SCORE.SYSTEM>
0

>  <SCORE.SYSTEM.CONST>
0

>  <SCORE.SYSTEM.DIHEDRAL>
0

>  <SCORE.SYSTEM.SOLV>
0

>  <SCORE.SYSTEM.norm>
0

>  <SCORE.heavy>
27

>  <SCORE.norm>
0.467698

>  <RMSD>
36.127

$$$$
ligand
 OpenBabel11021811473D
libRbt.so/2013.1/901 2013/11/27
 27 29  0  0  0  0  0  0  0  0999 V2000
   40.1229   22.0898   15.6230 N   0  0  0  0  0  0  0  0  0  0  0  0
   40.4047   23.5221   15.5571 C   0  0  2  0  0  0  0  0  0  0  0  0
   39.6749   24.3492   16.6175 C   0  0  0  0  0  0  0  0  0  0  0  0
   40.2906   25.1507   17.2382 O   0  0  0  0  0  0  0  0  0  0  0  0
   40.3044   24.1328   14.1435 C   0  0  0  0  0  0  0  0  0  0  0  0
   40.4573   25.6687   13.9626 C   0  0  0  0  0  0  0  0  0  0  0  0
   39.4041   26.5416   14.6956 C   0  0  2  0  0  0  0  0  0  0  0  0
   38.2753   26.9095   13.8409 N   0  0  0  0  0  0  0  0  0  0  0  0
   40.0512   27.7646   15.4159 C   0  0  0  0  0  0  0  0  0  0  0  0
   40.1144   29.1325   14.6562 C   0  0  1  0  0  0  0  0  0  0  0  0
   41.0271   29.2763   13.5277 O   0  0  0  0  0  0  0  0  0  0  0  0
   38.7670   29.7131   14.1432 C   0  0  1  0  0  0  0  0  0  0  0  0
   37.8026   30.1289   15.1190 O   0  0  0  0  0  0  0  0  0  0  0  0
   39.1556   30.6907   12.9910 C   0  0  1  0  0  0  0  0  0  0  0  0
   38.9963   32.0713   13.2132 O   0  0  0  0  0  0  0  0  0  0  0  0
   40.5255   30.1656   12.5503 C   0  0  2  0  0  0  0  0  0  0  0  0
   38.2782   24.5001   16.5065 O   0  0  0  0  0  0  0  0  0  0  0  0
   39.1150   25.7787    9.6775 N   0  0  0  0  0  0  0  0  0  0  0  0
   38.9630   25.9799   11.0542 C   0  0  0  0  0  0  0  0  0  0  0  0
   39.4033   27.2329   11.6634 N   0  0  0  0  0  0  0  0  0  0  0  0
   39.9638   28.2135   10.8891 C   0  0  0  0  0  0  0  0  0  0  0  0
   40.1148   28.0021    9.5047 C   0  0  0  0  0  0  0  0  0  0  0  0
   39.6765   26.7528    8.8984 C   0  0  0  0  0  0  0  0  0  0  0  0
   39.8317   26.5318    7.4602 N   0  0  0  0  0  0  0  0  0  0  0  0
   40.7263   29.1797    8.9389 N   0  0  0  0  0  0  0  0  0  0  0  0
   40.9447   30.0999    9.9911 C   0  0  0  0  0  0  0  0  0  0  0  0
   40.4775   29.5208   11.2061 N   0  0  0  0  0  0  0  0  0  0  0  0
  2  1  1  6  0  0  0
  2  3  1  0  0  0  0
  2  5  1  0  0  0  0
  3  4  1  0  0  0  0
  3 17  1  0  0  0  0
  5  6  1  0  0  0  0
  7  6  1  6  0  0  0
  7  8  1  0  0  0  0
  7  9  1  0  0  0  0
 10  9  1  6  0  0  0
 10 11  1  0  0  0  0
 10 12  1  0  0  0  0
 11 16  1  0  0  0  0
 12 13  1  1  0  0  0
 12 14  1  0  0  0  0
 14 15  1  1  0  0  0
 14 16  1  0  0  0  0
 16 27  1  6  0  0  0
 18 19  2  0  0  0  0
 18 23  1  0  0  0  0
 19 20  1  0  0  0  0
 20 21  2  0  0  0  0
 21 22  1  0  0  0  0
 21 27  1  0  0  0  0
 22 23  2  0  0  0  0
 22 25  1  0  0  0  0
 23 24  1  0  0  0  0
 25 26  2  0  0  0  0
 26 27  1  0  0  0  0
M  END
>  <CHROM.1>
132.71190595,174.59427145,-61.09555240,-94.95727922,93.84002141,-70.76491951
46.63394982,39.71869514,27.37830344,13.03657643,-1.90570610,1.46688630,-0.54362888

>  <Name>
ligand

>  <RI>
0

>  <Rbt.Current_Directory>
/home/itssahil/PROJECTS/Mol_Feturizer/New_Systems/rnas/3GX2

>  <Rbt.Executable>
rbdock ($Id: //depot/dev/client3/rdock/2013.1/src/exe/rbdock.cxx#4 $)

>  <Rbt.Library>
libRbt.so (2013.1, Build901 2013/11/27)

>  <Rbt.Parameter_File>
/export/apps/rDock/src/rDock_2013.1_src/data/scripts/dock_solv.prm

>  <Rbt.Receptor>
prm/blind_docking_60.prm

>  <SCORE>
12.5961

>  <SCORE.INTER>
2.83528

>  <SCORE.INTER.CONST>
1

>  <SCORE.INTER.POLAR>
0

>  <SCORE.INTER.ROT>
7

>  <SCORE.INTER.SOLV>
17.0254

>  <SCORE.INTER.VDW>
-12.0516

>  <SCORE.INTER.norm>
0.10501

>  <SCORE.INTRA>
1.85745

>  <SCORE.INTRA.DIHEDRAL>
-1.71965

>  <SCORE.INTRA.DIHEDRAL.0>
13.9704

>  <SCORE.INTRA.POLAR>
0

>  <SCORE.INTRA.POLAR.0>
0

>  <SCORE.INTRA.REPUL>
0

>  <SCORE.INTRA.REPUL.0>
0

>  <SCORE.INTRA.SOLV>
5.95799

>  <SCORE.INTRA.SOLV.lig_0>
-70.9758

>  <SCORE.INTRA.VDW>
-0.261723

>  <SCORE.INTRA.VDW.0>
-2.70686

>  <SCORE.INTRA.norm>
0.0687944

>  <SCORE.RESTR>
7.90334

>  <SCORE.RESTR.CAVITY>
7.90334

>  <SCORE.RESTR.norm>
0.292716

>  <SCORE.SYSTEM>
0

>  <SCORE.SYSTEM.CONST>
0

>  <SCORE.SYSTEM.DIHEDRAL>
0

>  <SCORE.SYSTEM.SOLV>
0

>  <SCORE.SYSTEM.norm>
0

>  <SCORE.heavy>
27

>  <SCORE.norm>
0.466521

>  <RMSD>
36.162

$$$$
ligand
 OpenBabel11021811473D
libRbt.so/2013.1/901 2013/11/27
 27 29  0  0  0  0  0  0  0  0999 V2000
   38.5636   22.3788   15.9213 N   0  0  0  0  0  0  0  0  0  0  0  0
   38.9919   23.7335   15.5803 C   0  0  2  0  0  0  0  0  0  0  0  0
   40.5000   23.8729   15.3625 C   0  0  0  0  0  0  0  0  0  0  0  0
   41.2340   23.5539   16.2379 O   0  0  0  0  0  0  0  0  0  0  0  0
   38.4101   24.8391   16.4860 C   0  0  0  0  0  0  0  0  0  0  0  0
   39.1412   26.2067   16.5874 C   0  0  0  0  0  0  0  0  0  0  0  0
   39.2639   27.0048   15.2622 C   0  0  2  0  0  0  0  0  0  0  0  0
   39.4065   26.1424   14.0892 N   0  0  0  0  0  0  0  0  0  0  0  0
   40.3566   28.1152   15.3425 C   0  0  0  0  0  0  0  0  0  0  0  0
   40.1435   29.4346   14.5262 C   0  0  1  0  0  0  0  0  0  0  0  0
   40.9605   29.6768   13.3426 O   0  0  0  0  0  0  0  0  0  0  0  0
   38.6920   29.7497   14.0683 C   0  0  1  0  0  0  0  0  0  0  0  0
   37.7196   30.0417   15.0803 O   0  0  0  0  0  0  0  0  0  0  0  0
   38.8475   30.7214   12.8576 C   0  0  1  0  0  0  0  0  0  0  0  0
   38.4619   32.0636   13.0331 O   0  0  0  0  0  0  0  0  0  0  0  0
   40.2643   30.4177   12.3606 C   0  0  2  0  0  0  0  0  0  0  0  0
   40.9872   23.8990   14.0405 O   0  0  0  0  0  0  0  0  0  0  0  0
   39.2087   25.7987    9.7078 N   0  0  0  0  0  0  0  0  0  0  0  0
   39.0482   26.0510   11.0751 C   0  0  0  0  0  0  0  0  0  0  0  0
   39.3858   27.3635   11.6214 N   0  0  0  0  0  0  0  0  0  0  0  0
   39.8581   28.3498   10.7972 C   0  0  0  0  0  0  0  0  0  0  0  0
   40.0184   28.0870    9.4226 C   0  0  0  0  0  0  0  0  0  0  0  0
   39.6824   26.7785    8.8790 C   0  0  0  0  0  0  0  0  0  0  0  0
   39.8474   26.5038    7.4512 N   0  0  0  0  0  0  0  0  0  0  0  0
   40.5262   29.2835    8.7970 N   0  0  0  0  0  0  0  0  0  0  0  0
   40.6731   30.2670    9.8033 C   0  0  0  0  0  0  0  0  0  0  0  0
   40.2627   29.7088   11.0483 N   0  0  0  0  0  0  0  0  0  0  0  0
  2  1  1  1  0  0  0
  2  3  1  0  0  0  0
  2  5  1  0  0  0  0
  3  4  1  0  0  0  0
  3 17  1  0  0  0  0
  5  6  1  0  0  0  0
  7  6  1  1  0  0  0
  7  8  1  0  0  0  0
  7  9  1  0  0  0  0
 10  9  1  6  0  0  0
 10 11  1  0  0  0  0
 10 12  1  0  0  0  0
 11 16  1  0  0  0  0
 12 13  1  1  0  0  0
 12 14  1  0  0  0  0
 14 15  1  1  0  0  0
 14 16  1  0  0  0  0
 16 27  1  6  0  0  0
 18 19  2  0  0  0  0
 18 23  1  0  0  0  0
 19 20  1  0  0  0  0
 20 21  2  0  0  0  0
 21 22  1  0  0  0  0
 21 27  1  0  0  0  0
 22 23  2  0  0  0  0
 22 25  1  0  0  0  0
 23 24  1  0  0  0  0
 25 26  2  0  0  0  0
 26 27  1  0  0  0  0
M  END
>  <CHROM.1>
-57.07264547,157.95125050,61.37029522,-33.21661873,-147.65458272,-107.93517382
52.43346528,39.64905997,27.39905455,13.00972229,-1.74752283,1.43269788,-0.63596849

>  <Name>
ligand

>  <RI>
0

>  <Rbt.Current_Directory>
/home/itssahil/PROJECTS/Mol_Feturizer/New_Systems/rnas/3GX2

>  <Rbt.Executable>
rbdock ($Id: //depot/dev/client3/rdock/2013.1/src/exe/rbdock.cxx#4 $)

>  <Rbt.Library>
libRbt.so (2013.1, Build901 2013/11/27)

>  <Rbt.Parameter_File>
/export/apps/rDock/src/rDock_2013.1_src/data/scripts/dock_solv.prm

>  <Rbt.Receptor>
prm/blind_docking_60.prm

>  <SCORE>
18.1022

>  <SCORE.INTER>
4.59268

>  <SCORE.INTER.CONST>
1

>  <SCORE.INTER.POLAR>
0

>  <SCORE.INTER.ROT>
7

>  <SCORE.INTER.SOLV>
13.2675

>  <SCORE.INTER.VDW>
-9.62738

>  <SCORE.INTER.norm>
0.170099

>  <SCORE.INTRA>
4.50605

>  <SCORE.INTRA.DIHEDRAL>
2.39888

>  <SCORE.INTRA.DIHEDRAL.0>
13.9704

>  <SCORE.INTRA.POLAR>
0

>  <SCORE.INTRA.POLAR.0>
0

>  <SCORE.INTRA.REPUL>
0

>  <SCORE.INTRA.REPUL.0>
0

>  <SCORE.INTRA.SOLV>
6.10954

>  <SCORE.INTRA.SOLV.lig_0>
-70.9758

>  <SCORE.INTRA.VDW>
0.251841

>  <SCORE.INTRA.VDW.0>
-2.70686

>  <SCORE.INTRA.norm>
0.166891

>  <SCORE.RESTR>
9.00343

>  <SCORE.RESTR.CAVITY>
9.00343

>  <SCORE.RESTR.norm>
0.33346

>  <SCORE.SYSTEM>
0

>  <SCORE.SYSTEM.CONST>
0

>  <SCORE.SYSTEM.DIHEDRAL>
0

>  <SCORE.SYSTEM.SOLV>
0

>  <SCORE.SYSTEM.norm>
0

>  <SCORE.heavy>
27

>  <SCORE.norm>
0.670451

>  <RMSD>
36.179

$$$$
ligand
 OpenBabel11021811473D
libRbt.so/2013.1/901 2013/11/27
 27 29  0  0  0  0  0  0  0  0999 V2000
   39.4426   23.4298   13.4287 N   0  0  0  0  0  0  0  0  0  0  0  0
   40.5706   23.5979   14.3421 C   0  0  2  0  0  0  0  0  0  0  0  0
   40.1872   23.5369   15.8222 C   0  0  0  0  0  0  0  0  0  0  0  0
   40.9610   23.9352   16.6281 O   0  0  0  0  0  0  0  0  0  0  0  0
   41.4962   24.7867   14.0089 C   0  0  0  0  0  0  0  0  0  0  0  0
   40.8754   26.1857   13.7391 C   0  0  0  0  0  0  0  0  0  0  0  0
   39.6932   26.5872   14.6608 C   0  0  2  0  0  0  0  0  0  0  0  0
   38.4099   26.6195   13.9593 N   0  0  0  0  0  0  0  0  0  0  0  0
   39.9873   27.8939   15.4604 C   0  0  0  0  0  0  0  0  0  0  0  0
   40.0799   29.2460   14.6758 C   0  0  1  0  0  0  0  0  0  0  0  0
   41.0032   29.3526   13.5518 O   0  0  0  0  0  0  0  0  0  0  0  0
   38.7466   29.8402   14.1418 C   0  0  1  0  0  0  0  0  0  0  0  0
   37.7827   30.2909   15.1025 O   0  0  0  0  0  0  0  0  0  0  0  0
   39.1606   30.7890   12.9746 C   0  0  1  0  0  0  0  0  0  0  0  0
   39.0239   32.1761   13.1697 O   0  0  0  0  0  0  0  0  0  0  0  0
   40.5243   30.2320   12.5541 C   0  0  2  0  0  0  0  0  0  0  0  0
   38.8200   23.4825   16.1592 O   0  0  0  0  0  0  0  0  0  0  0  0
   39.0103   25.8391    9.7439 N   0  0  0  0  0  0  0  0  0  0  0  0
   38.8446   26.0722   11.1140 C   0  0  0  0  0  0  0  0  0  0  0  0
   39.3176   27.3215   11.7060 N   0  0  0  0  0  0  0  0  0  0  0  0
   39.9222   28.2675   10.9220 C   0  0  0  0  0  0  0  0  0  0  0  0
   40.0867   28.0242    9.5444 C   0  0  0  0  0  0  0  0  0  0  0  0
   39.6157   26.7785    8.9552 C   0  0  0  0  0  0  0  0  0  0  0  0
   39.7849   26.5244    7.5241 N   0  0  0  0  0  0  0  0  0  0  0  0
   40.7457   29.1695    8.9658 N   0  0  0  0  0  0  0  0  0  0  0  0
   40.9792   30.1023   10.0035 C   0  0  0  0  0  0  0  0  0  0  0  0
   40.4747   29.5630   11.2220 N   0  0  0  0  0  0  0  0  0  0  0  0
  2  1  1  6  0  0  0
  2  3  1  0  0  0  0
  2  5  1  0  0  0  0
  3  4  1  0  0  0  0
  3 17  1  0  0  0  0
  5  6  1  0  0  0  0
  7  6  1  6  0  0  0
  7  8  1  0  0  0  0
  7  9  1  0  0  0  0
 10  9  1  6  0  0  0
 10 11  1  0  0  0  0
 10 12  1  0  0  0  0
 11 16  1  0  0  0  0
 12 13  1  1  0  0  0
 12 14  1  0  0  0  0
 14 15  1  1  0  0  0
 14 16  1  0  0  0  0
 16 27  1  6  0  0  0
 18 19  2  0  0  0  0
 18 23  1  0  0  0  0
 19 20  1  0  0  0  0
 20 21  2  0  0  0  0
 21 22  1  0  0  0  0
 21 27  1  0  0  0  0
 22 23  2  0  0  0  0
 22 25  1  0  0  0  0
 23 24  1  0  0  0  0
 25 26  2  0  0  0  0
 26 27  1  0  0  0  0
M  END
>  <CHROM.1>
-164.37832430,49.12543197,40.20661110,-110.05631111,68.39576427,-54.38948139
47.65642933,39.82491492,27.38847844,12.84676233,-1.32535280,1.47622038,-0.94176711

>  <Name>
ligand

>  <RI>
0

>  <Rbt.Current_Directory>
/home/itssahil/PROJECTS/Mol_Feturizer/New_Systems/rnas/3GX2

>  <Rbt.Executable>
rbdock ($Id: //depot/dev/client3/rdock/2013.1/src/exe/rbdock.cxx#4 $)

>  <Rbt.Library>
libRbt.so (2013.1, Build901 2013/11/27)

>  <Rbt.Parameter_File>
/export/apps/rDock/src/rDock_2013.1_src/data/scripts/dock_solv.prm

>  <Rbt.Receptor>
prm/blind_docking_60.prm

>  <SCORE>
12.8532

>  <SCORE.INTER>
3.12267

>  <SCORE.INTER.CONST>
1

>  <SCORE.INTER.POLAR>
0

>  <SCORE.INTER.ROT>
7

>  <SCORE.INTER.SOLV>
13.355

>  <SCORE.INTER.VDW>
-10.6366

>  <SCORE.INTER.norm>
0.115655

>  <SCORE.INTRA>
1.72224

>  <SCORE.INTRA.DIHEDRAL>
-2.13832

>  <SCORE.INTRA.DIHEDRAL.0>
13.9704

>  <SCORE.INTRA.POLAR>
0

>  <SCORE.INTRA.POLAR.0>
0

>  <SCORE.INTRA.REPUL>
0

>  <SCORE.INTRA.REPUL.0>
0

>  <SCORE.INTRA.SOLV>
7.42217

>  <SCORE.INTRA.SOLV.lig_0>
-70.9758

>  <SCORE.INTRA.VDW>
-0.919682

>  <SCORE.INTRA.VDW.0>
-2.70686

>  <SCORE.INTRA.norm>
0.0637868

>  <SCORE.RESTR>
8.00825

>  <SCORE.RESTR.CAVITY>
8.00825

>  <SCORE.RESTR.norm>
0.296602

>  <SCORE.SYSTEM>
0

>  <SCORE.SYSTEM.CONST>
0

>  <SCORE.SYSTEM.DIHEDRAL>
0

>  <SCORE.SYSTEM.SOLV>
0

>  <SCORE.SYSTEM.norm>
0

>  <SCORE.heavy>
27

>  <SCORE.norm>
0.476043

>  <RMSD>
36.191

$$$$
ligand
 OpenBabel11021811473D
libRbt.so/2013.1/901 2013/11/27
 27 29  0  0  0  0  0  0  0  0999 V2000
   39.7781   22.1353   13.5967 N   0  0  0  0  0  0  0  0  0  0  0  0
   40.4083   23.2984   14.2171 C   0  0  2  0  0  0  0  0  0  0  0  0
   40.2231   23.3711   15.7342 C   0  0  0  0  0  0  0  0  0  0  0  0
   41.1271   23.7520   16.4009 O   0  0  0  0  0  0  0  0  0  0  0  0
   40.1191   24.6396   13.5108 C   0  0  0  0  0  0  0  0  0  0  0  0
   40.4198   25.9727   14.2507 C   0  0  0  0  0  0  0  0  0  0  0  0
   39.6232   26.2104   15.5612 C   0  0  2  0  0  0  0  0  0  0  0  0
   38.1959   25.9222   15.4202 N   0  0  0  0  0  0  0  0  0  0  0  0
   39.9065   27.6157   16.1761 C   0  0  0  0  0  0  0  0  0  0  0  0
   39.9148   28.8601   15.2254 C   0  0  1  0  0  0  0  0  0  0  0  0
   40.7051   28.8123   14.0005 O   0  0  0  0  0  0  0  0  0  0  0  0
   38.5319   29.4083   14.7750 C   0  0  1  0  0  0  0  0  0  0  0  0
   37.6848   29.9899   15.7746 O   0  0  0  0  0  0  0  0  0  0  0  0
   38.8145   30.2001   13.4608 C   0  0  1  0  0  0  0  0  0  0  0  0
   38.7062   31.6028   13.4975 O   0  0  0  0  0  0  0  0  0  0  0  0
   40.1197   29.5718   12.9620 C   0  0  2  0  0  0  0  0  0  0  0  0
   38.9135   23.4611   16.2466 O   0  0  0  0  0  0  0  0  0  0  0  0
   41.0451   29.0665    7.6352 N   0  0  0  0  0  0  0  0  0  0  0  0
   41.4618   30.1040    8.4771 C   0  0  0  0  0  0  0  0  0  0  0  0
   41.1189   30.0763    9.8972 N   0  0  0  0  0  0  0  0  0  0  0  0
   40.3910   29.0349   10.4078 C   0  0  0  0  0  0  0  0  0  0  0  0
   39.9740   27.9958    9.5533 C   0  0  0  0  0  0  0  0  0  0  0  0
   40.3154   28.0244    8.1380 C   0  0  0  0  0  0  0  0  0  0  0  0
   39.8839   26.9453    7.2488 N   0  0  0  0  0  0  0  0  0  0  0  0
   39.2323   27.0420   10.3415 N   0  0  0  0  0  0  0  0  0  0  0  0
   39.2032   27.5145   11.6747 C   0  0  0  0  0  0  0  0  0  0  0  0
   39.9168   28.7462   11.7365 N   0  0  0  0  0  0  0  0  0  0  0  0
  2  1  1  6  0  0  0
  2  3  1  0  0  0  0
  2  5  1  0  0  0  0
  3  4  1  0  0  0  0
  3 17  1  0  0  0  0
  5  6  1  0  0  0  0
  7  6  1  6  0  0  0
  7  8  1  0  0  0  0
  7  9  1  0  0  0  0
 10  9  1  6  0  0  0
 10 11  1  0  0  0  0
 10 12  1  0  0  0  0
 11 16  1  0  0  0  0
 12 13  1  1  0  0  0
 12 14  1  0  0  0  0
 14 15  1  1  0  0  0
 14 16  1  0  0  0  0
 16 27  1  6  0  0  0
 18 19  2  0  0  0  0
 18 23  1  0  0  0  0
 19 20  1  0  0  0  0
 20 21  2  0  0  0  0
 21 22  1  0  0  0  0
 21 27  1  0  0  0  0
 22 23  2  0  0  0  0
 22 25  1  0  0  0  0
 23 24  1  0  0  0  0
 25 26  2  0  0  0  0
 26 27  1  0  0  0  0
M  END
>  <CHROM.1>
141.57316825,164.71545986,-61.81534294,-46.36995088,45.12727404,-49.88525280
-125.38983664,39.82279967,27.35886763,12.92819455,-1.89056410,1.34098430
-0.61600859

>  <Name>
ligand

>  <RI>
0

>  <Rbt.Current_Directory>
/home/itssahil/PROJECTS/Mol_Feturizer/New_Systems/rnas/3GX2

>  <Rbt.Executable>
rbdock ($Id: //depot/dev/client3/rdock/2013.1/src/exe/rbdock.cxx#4 $)

>  <Rbt.Library>
libRbt.so (2013.1, Build901 2013/11/27)

>  <Rbt.Parameter_File>
/export/apps/rDock/src/rDock_2013.1_src/data/scripts/dock_solv.prm

>  <Rbt.Receptor>
prm/blind_docking_60.prm

>  <SCORE>
10.4758

>  <SCORE.INTER>
0.0756045

>  <SCORE.INTER.CONST>
1

>  <SCORE.INTER.POLAR>
0

>  <SCORE.INTER.ROT>
7

>  <SCORE.INTER.SOLV>
10.9278

>  <SCORE.INTER.VDW>
-11.8588

>  <SCORE.INTER.norm>
0.00280017

>  <SCORE.INTRA>
-0.0593467

>  <SCORE.INTRA.DIHEDRAL>
-6.43202

>  <SCORE.INTRA.DIHEDRAL.0>
13.9704

>  <SCORE.INTRA.POLAR>
0

>  <SCORE.INTRA.POLAR.0>
0

>  <SCORE.INTRA.REPUL>
0

>  <SCORE.INTRA.REPUL.0>
0

>  <SCORE.INTRA.SOLV>
4.88326

>  <SCORE.INTRA.SOLV.lig_0>
-70.9758

>  <SCORE.INTRA.VDW>
0.715032

>  <SCORE.INTRA.VDW.0>
-2.70686

>  <SCORE.INTRA.norm>
-0.00219803

>  <SCORE.RESTR>
10.4595

>  <SCORE.RESTR.CAVITY>
10.4595

>  <SCORE.RESTR.norm>
0.387389

>  <SCORE.SYSTEM>
0

>  <SCORE.SYSTEM.CONST>
0

>  <SCORE.SYSTEM.DIHEDRAL>
0

>  <SCORE.SYSTEM.SOLV>
0

>  <SCORE.SYSTEM.norm>
0

>  <SCORE.heavy>
27

>  <SCORE.norm>
0.387991

>  <RMSD>
36.197

$$$$
