@<TRIPOS>MOLECULE
3GX2_rdock.pdb
 2029 2275 0 0 0
SMALL
GASTEIGER

@<TRIPOS>ATOM
      1  P         66.3160   54.5680   32.6600 P.3     1  G1          0.1280
      2  C5'       67.6460   52.2950   32.8510 C.3     1  G1          0.1795
      3  O5'       67.0740   53.4330   33.4980 O.3     1  G1         -0.3259
      4  C4'       68.5390   51.5030   33.7960 C.3     1  G1          0.1772
      5  O4'       69.3000   52.4270   34.6200 O.3     1  G1         -0.3307
      6  C3'       67.8280   50.5830   34.7840 C.3     1  G1          0.1860
      7  O3'       67.6540   49.2780   34.2370 O.3     1  G1         -0.3112
      8  C2'       68.8300   50.5370   35.9290 C.3     1  G1          0.2309
      9  O2'       69.9080   49.6700   35.6410 O.3     1  G1         -0.2156
     10  C1'       69.3120   51.9820   35.9630 C.3     1  G1          0.2408
     11  N1        67.2200   52.9060   40.5300 N.ar    1  G1         -0.1709
     12  C2        68.0420   51.8720   40.1460 C.ar    1  G1          0.2606
     13  N2        68.3480   50.9730   41.0930 N.pl3   1  G1         -0.0859
     14  N3        68.5340   51.7310   38.9200 N.ar    1  G1         -0.1918
     15  C4        68.1270   52.7250   38.0910 C.ar    1  G1          0.1723
     16  C5        67.3090   53.7960   38.3820 C.ar    1  G1          0.1748
     17  C6        66.7920   53.9360   39.6940 C.ar    1  G1          0.3023
     18  O6        66.0510   54.8250   40.1360 O.2     1  G1         -0.2633
     19  N7        67.1270   54.5960   37.2610 N.ar    1  G1         -0.2173
     20  C8        67.8260   54.0040   36.3330 C.ar    1  G1          0.1817
     21  N9        68.4610   52.8630   36.7610 N.ar    1  G1         -0.2693
     22  OP1       67.2700   55.6710   32.4140 O.3     1  G1         -0.1955
     23  OP2       65.0580   54.8670   33.3770 O.co2   1  G1         -0.7863
     24  P         66.2410   48.5270   34.3330 P.3     2  G2          0.2141
     25  C5'       67.3640   47.1220   36.2450 C.3     2  G2          0.1812
     26  O5'       66.6260   48.2770   35.8730 O.3     2  G2         -0.3114
     27  C4'       67.2610   46.8410   37.7240 C.3     2  G2          0.1773
     28  O4'       67.6140   48.0320   38.4750 O.3     2  G2         -0.3307
     29  C3'       65.8820   46.4760   38.2540 C.3     2  G2          0.1860
     30  O3'       65.5280   45.1230   38.0340 O.3     2  G2         -0.3112
     31  C2'       66.0090   46.8250   39.7300 C.3     2  G2          0.2309
     32  O2'       66.7620   45.8320   40.4110 O.3     2  G2         -0.2156
     33  C1'       66.8490   48.0980   39.6600 C.3     2  G2          0.2408
     34  N1        63.6700   51.1520   42.2260 N.ar    2  G2         -0.1709
     35  C2        64.3310   50.0260   42.6530 C.ar    2  G2          0.2606
     36  N2        64.1200   49.6630   43.9260 N.pl3   2  G2         -0.0859
     37  N3        65.1420   49.3060   41.8880 N.ar    2  G2         -0.1918
     38  C4        65.2370   49.8150   40.6350 C.ar    2  G2          0.1723
     39  C5        64.6180   50.9300   40.1140 C.ar    2  G2          0.1748
     40  C6        63.7570   51.6890   40.9430 C.ar    2  G2          0.3023
     41  O6        63.1190   52.7120   40.6570 O.2     2  G2         -0.2633
     42  N7        64.9770   51.1160   38.7860 N.ar    2  G2         -0.2173
     43  C8        65.7910   50.1290   38.5320 C.ar    2  G2          0.1817
     44  N9        65.9980   49.3010   39.6080 N.ar    2  G2         -0.2693
     45  OP1       66.8840   47.4690   33.5130 O.2     2  G2         -0.5172
     46  OP2       65.6930   49.8460   33.9270 O.co2   2  G2         -0.4373
     47  P         63.9990   44.6690   38.1720 P.3     3  C3          0.2141
     48  C5'       63.9460   44.1600   40.7440 C.3     3  C3          0.1812
     49  O5'       63.6060   45.0340   39.6790 O.3     3  C3         -0.3114
     50  C4'       63.2100   44.5250   42.0080 C.3     3  C3          0.1773
     51  O4'       63.5190   45.8960   42.3710 O.3     3  C3         -0.3307
     52  C3'       61.6930   44.5120   41.9210 C.3     3  C3          0.1860
     53  O3'       61.1320   43.2170   42.0400 O.3     3  C3         -0.3112
     54  C2'       61.2890   45.4490   43.0500 C.3     3  C3          0.2309
     55  O2'       61.3860   44.7920   44.3060 O.3     3  C3         -0.2156
     56  C1'       62.3920   46.5030   42.9670 C.3     3  C3          0.2420
     57  N1        61.9960   47.6950   42.1680 N.ar    3  C3         -0.2535
     58  C2        61.1490   48.6510   42.7370 C.ar    3  C3          0.3532
     59  O2        60.7490   48.4880   43.8940 O.2     3  C3         -0.2443
     60  N3        60.7890   49.7330   42.0060 N.ar    3  C3         -0.1739
     61  C4        61.2410   49.8730   40.7610 C.ar    3  C3          0.1759
     62  N4        60.8580   50.9580   40.0800 N.pl3   3  C3         -0.1070
     63  C5        62.1060   48.9100   40.1600 C.ar    3  C3          0.0566
     64  C6        62.4550   47.8460   40.8930 C.ar    3  C3          0.0850
     65  OP1       63.9490   43.1900   38.1380 O.3     3  C3         -0.4373
     66  OP2       63.1690   45.4730   37.2470 O.co2   3  C3         -0.5172
     67  P         59.7200   42.9250   41.3510 P.3     4  U4          0.2141
     68  C5'       58.4550   43.5280   43.5640 C.3     4  U4          0.1812
     69  O5'       58.6850   43.8110   42.1920 O.3     4  U4         -0.3114
     70  C4'       57.4480   44.4760   44.1650 C.3     4  U4          0.1773
     71  O4'       57.9880   45.8230   44.1940 O.3     4  U4         -0.3307
     72  C3'       56.1390   44.6230   43.4070 C.3     4  U4          0.1860
     73  O3'       55.2260   43.5730   43.6690 O.3     4  U4         -0.3112
     74  C2'       55.6400   45.9850   43.8670 C.3     4  U4          0.2309
     75  O2'       55.0540   45.8950   45.1560 O.3     4  U4         -0.2156
     76  C1'       56.9510   46.7600   43.9890 C.3     4  U4          0.2420
     77  N1        57.2580   47.5740   42.7800 N.ar    4  U4         -0.2534
     78  C2        56.5700   48.7510   42.5750 C.ar    4  U4          0.3546
     79  O2        55.7160   49.1660   43.3370 O.2     4  U4         -0.2443
     80  N3        56.9170   49.4320   41.4370 N.ar    4  U4         -0.1530
     81  C4        57.8660   49.0610   40.5050 C.ar    4  U4          0.2846
     82  O4        58.0720   49.7780   39.5330 O.2     4  U4         -0.2650
     83  C5        58.5410   47.8210   40.7880 C.ar    4  U4          0.0814
     84  C6        58.2180   47.1380   41.8910 C.ar    4  U4          0.0870
     85  OP1       59.3250   41.5290   41.6430 O.3     4  U4         -0.4373
     86  OP2       59.7690   43.4210   39.9580 O.co2   4  U4         -0.5172
     87  P         54.2190   43.1020   42.5210 P.3     5  U5          0.2141
     88  C5'       52.3960   44.7970   43.3320 C.3     5  U5          0.1812
     89  O5'       53.2700   44.3720   42.2960 O.3     5  U5         -0.3114
     90  C4'       51.7390   46.1150   43.0060 C.3     5  U5          0.1773
     91  O4'       52.7500   47.1380   42.8070 O.3     5  U5         -0.3307
     92  C3'       50.9300   46.1590   41.7210 C.3     5  U5          0.1860
     93  O3'       49.6440   45.5800   41.8470 O.3     5  U5         -0.3112
     94  C2'       50.9050   47.6480   41.4020 C.3     5  U5          0.2309
     95  O2'       49.9650   48.3260   42.2220 O.3     5  U5         -0.2156
     96  C1'       52.3060   48.0700   41.8420 C.3     5  U5          0.2420
     97  N1        53.2850   48.1520   40.7180 N.ar    5  U5         -0.2534
     98  C2        53.2380   49.2460   39.8810 C.ar    5  U5          0.3546
     99  O2        52.4310   50.1470   40.0190 O.2     5  U5         -0.2443
    100  N3        54.1700   49.2480   38.8740 N.ar    5  U5         -0.1530
    101  C4        55.1270   48.2800   38.6260 C.ar    5  U5          0.2846
    102  O4        55.9000   48.4130   37.6820 O.2     5  U5         -0.2650
    103  C5        55.1130   47.1690   39.5420 C.ar    5  U5          0.0814
    104  C6        54.2120   47.1470   40.5310 C.ar    5  U5          0.0870
    105  OP1       53.3170   42.0710   43.0820 O.3     5  U5         -0.4373
    106  OP2       54.9930   42.8320   41.2880 O.co2   5  U5         -0.5172
    107  P         48.9570   44.9160   40.5620 P.3     6  A6          0.2141
    108  C5'       47.3220   46.9230   40.2930 C.3     6  A6          0.1812
    109  O5'       48.3970   46.1740   39.7480 O.3     6  A6         -0.3114
    110  C4'       47.1010   48.2070   39.5370 C.3     6  A6          0.1773
    111  O4'       48.3200   48.9920   39.5520 O.3     6  A6         -0.3307
    112  C3'       46.7840   48.0640   38.0590 C.3     6  A6          0.1860
    113  O3'       45.4270   47.7410   37.8040 O.3     6  A6         -0.3112
    114  C2'       47.2100   49.4160   37.5020 C.3     6  A6          0.2309
    115  O2'       46.2390   50.4090   37.8000 O.3     6  A6         -0.2156
    116  C1'       48.4540   49.7040   38.3420 C.3     6  A6          0.2408
    117  N1        52.3070   50.9970   35.1710 N.ar    6  A6         -0.2040
    118  C2        51.2370   51.6740   35.6030 C.ar    6  A6          0.2016
    119  N3        50.2720   51.2760   36.4270 N.ar    6  A6         -0.2048
    120  C4        50.4830   50.0130   36.8290 C.ar    6  A6          0.1692
    121  C5        51.5350   49.1920   36.4730 C.ar    6  A6          0.1518
    122  C6        52.4920   49.7300   35.5920 C.ar    6  A6          0.1919
    123  N6        53.5600   49.0540   35.1590 N.pl3   6  A6         -0.1054
    124  N7        51.4230   47.9550   37.0840 N.ar    6  A6         -0.2193
    125  C8        50.3190   48.0540   37.7880 C.ar    6  A6          0.1816
    126  N9        49.6990   49.2690   37.6790 N.ar    6  A6         -0.2693
    127  OP1       47.7400   44.1960   40.9990 O.3     6  A6         -0.4373
    128  OP2       49.9920   44.2220   39.7610 O.co2   6  A6         -0.5172
    129  P         45.0830   46.7160   36.6230 P.3     7  U7          0.2141
    130  C5'       44.3030   48.7410   35.1540 C.3     7  U7          0.1812
    131  O5'       45.1660   47.6230   35.3080 O.3     7  U7         -0.3114
    132  C4'       44.7440   49.6130   34.0070 C.3     7  U7          0.1773
    133  O4'       46.0390   50.1910   34.3150 O.3     7  U7         -0.3307
    134  C3'       44.9650   48.8940   32.6860 C.3     7  U7          0.1860
    135  O3'       43.7680   48.6830   31.9550 O.3     7  U7         -0.3112
    136  C2'       45.9680   49.7960   31.9800 C.3     7  U7          0.2309
    137  O2'       45.3240   50.9360   31.4310 O.3     7  U7         -0.2156
    138  C1'       46.8360   50.2470   33.1530 C.3     7  U7          0.2420
    139  N1        48.0050   49.3540   33.3650 N.ar    7  U7         -0.2534
    140  C2        49.1700   49.5850   32.6680 C.ar    7  U7          0.3546
    141  O2        49.3000   50.5000   31.8750 O.2     7  U7         -0.2443
    142  N3        50.1870   48.7010   32.9340 N.ar    7  U7         -0.1530
    143  C4        50.1520   47.6300   33.8080 C.ar    7  U7          0.2846
    144  O4        51.1440   46.9210   33.9450 O.2     7  U7         -0.2650
    145  C5        48.9010   47.4530   34.4960 C.ar    7  U7          0.0814
    146  C6        47.8980   48.3020   34.2530 C.ar    7  U7          0.0870
    147  OP1       43.6560   46.3360   36.7110 O.3     7  U7         -0.4373
    148  OP2       46.1370   45.6780   36.5740 O.co2   7  U7         -0.5172
    149  P         43.4540   47.2620   31.2790 P.3     8  C8          0.2141
    150  C5'       44.0250   48.9510   29.3530 C.3     8  C8          0.1812
    151  O5'       44.3860   47.7880   30.0830 O.3     8  C8         -0.3114
    152  C4'       44.9810   49.2030   28.2160 C.3     8  C8          0.1773
    153  O4'       46.2800   49.5970   28.7260 O.3     8  C8         -0.3307
    154  C3'       45.2790   48.0080   27.3260 C.3     8  C8          0.1860
    155  O3'       44.2500   47.7970   26.3770 O.3     8  C8         -0.3112
    156  C2'       46.6100   48.4010   26.7000 C.3     8  C8          0.2309
    157  O2'       46.4040   49.3250   25.6400 O.3     8  C8         -0.2156
    158  C1'       47.2930   49.1300   27.8600 C.3     8  C8          0.2420
    159  N1        48.2530   48.2810   28.6290 N.ar    8  C8         -0.2535
    160  C2        49.6200   48.3500   28.3360 C.ar    8  C8          0.3532
    161  O2        50.0070   49.1160   27.4460 O.2     8  C8         -0.2443
    162  N3        50.4850   47.5740   29.0330 N.ar    8  C8         -0.1739
    163  C4        50.0290   46.7620   29.9870 C.ar    8  C8          0.1759
    164  N4        50.9190   46.0170   30.6480 N.pl3   8  C8         -0.1070
    165  C5        48.6410   46.6770   30.3040 C.ar    8  C8          0.0566
    166  C6        47.7970   47.4460   29.6070 C.ar    8  C8          0.0850
    167  OP1       42.0860   47.8090   31.0910 O.2     8  C8         -0.5172
    168  OP2       44.0960   46.7010   32.4950 O.co2   8  C8         -0.4373
    169  P         44.1120   46.4410   25.5400 P.3     9  A9          0.2141
    170  C5'       43.3430   48.3540   23.8930 C.3     9  A9          0.1812
    171  O5'       43.5630   46.9740   24.1340 O.3     9  A9         -0.3114
    172  C4'       42.5500   48.4960   22.6150 C.3     9  A9          0.1773
    173  O4'       42.2040   47.1670   22.1620 O.3     9  A9         -0.3307
    174  C3'       41.2430   49.2750   22.6850 C.3     9  A9          0.1860
    175  O3'       41.3880   50.6310   22.2690 O.3     9  A9         -0.3112
    176  C2'       40.2340   48.4760   21.8580 C.3     9  A9          0.2309
    177  O2'       40.1760   48.9770   20.5380 O.3     9  A9         -0.2156
    178  C1'       40.8450   47.0810   21.8030 C.3     9  A9          0.2408
    179  N1        37.3020   43.3650   22.6160 N.ar    9  A9         -0.2040
    180  C2        37.6650   44.0230   21.5070 C.ar    9  A9          0.2016
    181  N3        38.5880   44.9730   21.3390 N.ar    9  A9         -0.2048
    182  C4        39.1940   45.2490   22.5070 C.ar    9  A9          0.1692
    183  C5        38.9270   44.6560   23.7310 C.ar    9  A9          0.1518
    184  C6        37.9210   43.6580   23.7770 C.ar    9  A9          0.1919
    185  N6        37.5450   42.9930   24.8800 N.pl3   9  A9         -0.1054
    186  N7        39.7480   45.1990   24.7090 N.ar    9  A9         -0.2193
    187  C8        40.4810   46.0870   24.0840 C.ar    9  A9          0.1816
    188  N9        40.1990   46.1640   22.7530 N.ar    9  A9         -0.2693
    189  OP1       43.0880   45.5800   26.1810 O.3     9  A9         -0.4373
    190  OP2       45.4570   45.9110   25.2210 O.co2   9  A9         -0.5172
    191  P         41.7160   51.2440   20.8050 P.3    10  A10         0.2141
    192  C5'       39.3840   51.5080   21.4390 C.3    10  A10         0.1812
    193  O5'       40.2340   51.5790   20.3140 O.3    10  A10        -0.3114
    194  C4'       38.3040   52.5460   21.4560 C.3    10  A10         0.1773
    195  O4'       37.9390   52.6580   22.8520 O.3    10  A10        -0.3307
    196  C3'       38.7210   53.9400   21.0000 C.3    10  A10         0.1860
    197  O3'       38.0220   54.3600   19.8360 O.3    10  A10        -0.3112
    198  C2'       38.4150   54.8700   22.1750 C.3    10  A10         0.2309
    199  O2'       37.2940   55.7030   21.9690 O.3    10  A10        -0.2156
    200  C1'       38.1510   53.9540   23.3570 C.3    10  A10         0.2408
    201  N1        41.4060   56.3130   26.5920 N.ar   10  A10        -0.2040
    202  C2        40.2000   56.6750   26.1360 C.ar   10  A10         0.2016
    203  N3        39.3840   56.0290   25.3020 N.ar   10  A10        -0.2048
    204  C4        39.9310   54.8650   24.9210 C.ar   10  A10         0.1692
    205  C5        41.1530   54.3630   25.3080 C.ar   10  A10         0.1518
    206  C6        41.9140   55.1330   26.1850 C.ar   10  A10         0.1919
    207  N6        43.1070   54.7180   26.6110 N.pl3  10  A10        -0.1054
    208  N7        41.4160   53.1370   24.7350 N.ar   10  A10        -0.2193
    209  C8        40.3500   52.9150   24.0120 C.ar   10  A10         0.1816
    210  N9        39.4050   53.8980   24.1010 N.ar   10  A10        -0.2693
    211  OP1       42.1590   50.2250   19.8360 O.2    10  A10        -0.5172
    212  OP2       42.4550   52.5120   21.0130 O.co2  10  A10        -0.4373
    213  P         38.9780   55.0250   18.7350 P.3    11  G11         0.2141
    214  C5'       38.2390   57.1010   19.9870 C.3    11  G11         0.1812
    215  O5'       39.3600   56.3850   19.4840 O.3    11  G11        -0.3114
    216  C4'       38.5940   58.3130   20.8090 C.3    11  G11         0.1773
    217  O4'       39.1040   57.9070   22.1080 O.3    11  G11        -0.3307
    218  C3'       39.6680   59.1940   20.1880 C.3    11  G11         0.1860
    219  O3'       39.1290   60.3410   19.5430 O.3    11  G11        -0.3112
    220  C2'       40.6340   59.5660   21.3110 C.3    11  G11         0.2309
    221  O2'       40.5920   60.9260   21.6890 O.3    11  G11        -0.2156
    222  C1'       40.2410   58.6680   22.4790 C.3    11  G11         0.2408
    223  N1        44.6260   57.6550   24.9110 N.ar   11  G11        -0.1709
    224  C2        43.7840   58.7310   25.0780 C.ar   11  G11         0.2606
    225  N2        44.1570   59.6420   25.9890 N.pl3  11  G11        -0.0859
    226  N3        42.6560   58.9020   24.3990 N.ar   11  G11        -0.1918
    227  C4        42.4370   57.8920   23.5220 C.ar   11  G11         0.1723
    228  C5        43.2170   56.7820   23.2880 C.ar   11  G11         0.1748
    229  C6        44.4140   56.6090   24.0170 C.ar   11  G11         0.3023
    230  O6        45.2280   55.6780   23.9330 O.2    11  G11        -0.2633
    231  N7        42.6540   55.9700   22.3130 N.ar   11  G11        -0.2173
    232  C8        41.5620   56.5930   21.9820 C.ar   11  G11         0.1817
    233  N9        41.3520   57.7460   22.6900 N.ar   11  G11        -0.2693
    234  OP1       38.1780   55.4620   17.5680 O.2    11  G11        -0.5172
    235  OP2       40.1830   54.1850   18.5490 O.co2  11  G11        -0.4373
    236  P         39.5950   60.2780   18.0130 P.3    12  A12         0.2141
    237  C5'       40.1380   62.8150   18.3910 C.3    12  A12         0.1812
    238  O5'       40.5180   61.5700   17.8270 O.3    12  A12        -0.3114
    239  C4'       41.3320   63.5140   18.9880 C.3    12  A12         0.1773
    240  O4'       41.7780   62.7870   20.1600 O.3    12  A12        -0.3307
    241  C3'       42.5660   63.5850   18.1020 C.3    12  A12         0.1860
    242  O3'       42.5090   64.6430   17.1580 O.3    12  A12        -0.3112
    243  C2'       43.6980   63.7230   19.1160 C.3    12  A12         0.2309
    244  O2'       43.8240   65.0660   19.5580 O.3    12  A12        -0.2156
    245  C1'       43.1810   62.8870   20.2870 C.3    12  A12         0.2408
    246  N1        46.2150   59.6490   22.9280 N.ar   12  A12        -0.2040
    247  C2        45.8410   60.9130   23.1510 C.ar   12  A12         0.2016
    248  N3        45.0470   61.6930   22.4180 N.ar   12  A12        -0.2048
    249  C4        44.6060   61.0440   21.3280 C.ar   12  A12         0.1692
    250  C5        44.9030   59.7440   20.9670 C.ar   12  A12         0.1518
    251  C6        45.7560   59.0200   21.8270 C.ar   12  A12         0.1919
    252  N6        46.1300   57.7560   21.6080 N.pl3  12  A12        -0.1054
    253  N7        44.2680   59.4150   19.7800 N.ar   12  A12        -0.2193
    254  C8        43.6120   60.5060   19.4560 C.ar   12  A12         0.1816
    255  N9        43.7710   61.5330   20.3450 N.ar   12  A12        -0.2693
    256  OP1       38.4480   60.4860   17.1010 O.2    12  A12        -0.5172
    257  OP2       40.4380   59.0650   17.8850 O.co2  12  A12        -0.4373
    258  P         42.4470   64.3230   15.5830 P.3    13  G13         0.2141
    259  C5'       41.6760   66.0560   13.6770 C.3    13  G13         0.1812
    260  O5'       42.3870   65.7600   14.8740 O.3    13  G13        -0.3114
    261  C4'       42.0780   67.4210   13.1940 C.3    13  G13         0.1773
    262  O4'       42.5680   68.1370   14.3600 O.3    13  G13        -0.3307
    263  C3'       43.2720   67.4580   12.2540 C.3    13  G13         0.1860
    264  O3'       43.0090   67.1560   10.8940 O.3    13  G13        -0.3112
    265  C2'       43.8470   68.8390   12.5300 C.3    13  G13         0.2309
    266  O2'       42.9930   69.8680   12.0460 O.3    13  G13        -0.2156
    267  C1'       43.7650   68.8180   14.0510 C.3    13  G13         0.2408
    268  N1        48.1860   68.6040   16.7360 N.ar   13  G13        -0.1709
    269  C2        47.3990   69.7000   16.4730 C.ar   13  G13         0.2606
    270  N2        47.8690   70.8500   16.9680 N.pl3  13  G13        -0.0859
    271  N3        46.2600   69.6770   15.7850 N.ar   13  G13        -0.1918
    272  C4        45.9840   68.4240   15.3400 C.ar   13  G13         0.1723
    273  C5        46.7280   67.2720   15.5430 C.ar   13  G13         0.1748
    274  C6        47.9290   67.3150   16.2920 C.ar   13  G13         0.3023
    275  O6        48.7070   66.3840   16.5640 O.2    13  G13        -0.2633
    276  N7        46.1290   66.1800   14.9360 N.ar   13  G13        -0.2173
    277  C8        45.0610   66.6710   14.3860 C.ar   13  G13         0.1817
    278  N9        44.8890   68.0230   14.5880 N.ar   13  G13        -0.2693
    279  OP1       41.1380   63.7030   15.2730 O.3    13  G13        -0.4373
    280  OP2       43.7100   63.6450   15.2100 O.co2  13  G13        -0.5172
    281  P         44.0860   66.1390   10.2870 P.3    14  A14         0.2141
    282  C5'       45.4980   67.2810    8.3720 C.3    14  A14         0.1812
    283  O5'       44.3550   66.5220    8.7530 O.3    14  A14        -0.3114
    284  C4'       45.1480   68.7330    8.2000 C.3    14  A14         0.1773
    285  O4'       44.3870   68.9340    6.9920 O.3    14  A14        -0.3307
    286  C3'       44.3470   69.3290    9.3390 C.3    14  A14         0.1860
    287  O3'       45.1320   70.3670    9.9110 O.3    14  A14        -0.3112
    288  C2'       43.0050   69.7850    8.7500 C.3    14  A14         0.2309
    289  O2'       42.7430   71.1470    9.0760 O.3    14  A14        -0.2156
    290  C1'       43.1590   69.5790    7.2240 C.3    14  A14         0.2408
    291  N1        39.4770   69.2910    3.5220 N.ar   14  A14        -0.2040
    292  C2        40.0970   70.3320    4.0940 C.ar   14  A14         0.2016
    293  N3        41.0270   70.3430    5.0470 N.ar   14  A14        -0.2048
    294  C4        41.3320   69.0940    5.4370 C.ar   14  A14         0.1692
    295  C5        40.7740   67.9200    4.9390 C.ar   14  A14         0.1518
    296  C6        39.7920   68.0400    3.9230 C.ar   14  A14         0.1919
    297  N6        39.1700   67.0000    3.3480 N.pl3  14  A14        -0.1054
    298  N7        41.3320   66.8260    5.5790 N.ar   14  A14        -0.2193
    299  C8        42.1920   67.3570    6.4230 C.ar   14  A14         0.1816
    300  N9        42.2150   68.7300    6.4480 N.ar   14  A14        -0.2693
    301  OP1       43.5380   64.7700   10.3750 O.2    14  A14        -0.5172
    302  OP2       45.3540   66.4650   10.9750 O.co2  14  A14        -0.4373
    303  P         46.3630   70.9180    9.0100 P.3    15  G15         0.2141
    304  C5'       45.8310   73.6190    9.3490 C.3    15  G15         0.1812
    305  O5'       46.6570   72.4780    9.1850 O.3    15  G15        -0.3114
    306  C4'       46.7900   74.7340    9.6440 C.3    15  G15         0.1773
    307  O4'       47.1510   74.6390   11.0510 O.3    15  G15        -0.3307
    308  C3'       48.0810   74.5390    8.8420 C.3    15  G15         0.1860
    309  O3'       48.6350   75.7530    8.3540 O.3    15  G15        -0.3112
    310  C2'       49.0470   73.9130    9.8380 C.3    15  G15         0.2309
    311  O2'       50.4050   74.2470    9.6540 O.3    15  G15        -0.2156
    312  C1'       48.5370   74.3720   11.1970 C.3    15  G15         0.2408
    313  N1        50.9750   72.1440   15.2100 N.ar   15  G15        -0.1709
    314  C2        51.1640   73.4160   14.7320 C.ar   15  G15         0.2606
    315  N2        52.0970   74.1290   15.3800 N.pl3  15  G15        -0.0859
    316  N3        50.4890   73.9370   13.7040 N.ar   15  G15        -0.1918
    317  C4        49.5880   73.0560   13.1760 C.ar   15  G15         0.1723
    318  C5        49.3350   71.7650   13.6000 C.ar   15  G15         0.1748
    319  C6        50.0520   71.2310   14.7060 C.ar   15  G15         0.3023
    320  O6        49.9290   70.1200   15.2490 O.2    15  G15        -0.2633
    321  N7        48.3450   71.1750   12.8190 N.ar   15  G15        -0.2173
    322  C8        48.0100   72.0840   11.9570 C.ar   15  G15         0.1817
    323  N9        48.7050   73.2520   12.1180 N.ar   15  G15        -0.2693
    324  OP1       46.0830   70.7180    7.5710 O.2    15  G15        -0.5172
    325  OP2       47.5820   70.3270    9.5920 O.co2  15  G15        -0.4373
    326  P         50.0470   75.8160    7.5750 P.3    16  G16         0.2141
    327  C5'       52.3240   75.9490    8.9180 C.3    16  G16         0.1812
    328  O5'       51.0050   76.4410    8.6920 O.3    16  G16        -0.3114
    329  C4'       53.1210   76.9730    9.6840 C.3    16  G16         0.1773
    330  O4'       52.6530   76.9660   11.0580 O.3    16  G16        -0.3307
    331  C3'       54.6220   76.7250    9.7410 C.3    16  G16         0.1860
    332  O3'       55.3540   77.6610    8.9590 O.3    16  G16        -0.3112
    333  C2'       55.0130   76.8130   11.2170 C.3    16  G16         0.2309
    334  O2'       55.6660   78.0110   11.5770 O.3    16  G16        -0.2156
    335  C1'       53.7000   76.6970   11.9700 C.3    16  G16         0.2408
    336  N1        55.7490   72.6750   14.3670 N.ar   16  G16        -0.1709
    337  C2        56.1980   73.9740   14.3590 C.ar   16  G16         0.2606
    338  N2        57.3180   74.2000   15.0660 N.pl3  16  G16        -0.0859
    339  N3        55.5860   74.9650   13.7070 N.ar   16  G16        -0.1918
    340  C4        54.4700   74.5350   13.0540 C.ar   16  G16         0.1723
    341  C5        53.9580   73.2600   13.0130 C.ar   16  G16         0.1748
    342  C6        54.6130   72.2250   13.7050 C.ar   16  G16         0.3023
    343  O6        54.2860   71.0350   13.7670 O.2    16  G16        -0.2633
    344  N7        52.8070   73.1920   12.2460 N.ar   16  G16        -0.2173
    345  C8        52.6370   74.4120   11.8320 C.ar   16  G16         0.1817
    346  N9        53.5820   75.2830   12.3080 N.ar   16  G16        -0.2693
    347  OP1       49.8490   76.8780    6.5670 O.2    16  G16        -0.5172
    348  OP2       50.6470   74.5200    7.1820 O.co2  16  G16        -0.4373
    349  P         56.3740   76.8820    8.0050 P.3    17  U17         0.2141
    350  C5'       57.8210   77.5830    9.9400 C.3    17  U17         0.1812
    351  O5'       57.4640   76.4900    9.1060 O.3    17  U17        -0.3114
    352  C4'       58.9450   77.2780   10.8940 C.3    17  U17         0.1773
    353  O4'       58.3950   76.6470   12.0820 O.3    17  U17        -0.3307
    354  C3'       60.0040   76.3190   10.3610 C.3    17  U17         0.1860
    355  O3'       61.1810   76.9690    9.8960 O.3    17  U17        -0.3112
    356  C2'       60.3210   75.3530   11.5000 C.3    17  U17         0.2309
    357  O2'       61.5740   75.5680   12.1180 O.3    17  U17        -0.2156
    358  C1'       59.1940   75.5560   12.5000 C.3    17  U17         0.2420
    359  N1        58.4930   74.2920   12.2480 N.ar   17  U17        -0.2534
    360  C2        58.9800   73.1600   12.8600 C.ar   17  U17         0.3546
    361  O2        59.9150   73.1800   13.6410 O.2    17  U17        -0.2443
    362  N3        58.3130   72.0060   12.5440 N.ar   17  U17        -0.1530
    363  C4        57.2470   71.8770   11.6740 C.ar   17  U17         0.2846
    364  O4        56.7460   70.7730   11.4880 O.2    17  U17        -0.2650
    365  C5        56.8170   73.1030   11.0500 C.ar   17  U17         0.0814
    366  C6        57.4550   74.2410   11.3430 C.ar   17  U17         0.0870
    367  OP1       57.1000   77.7870    7.0830 O.2    17  U17        -0.5172
    368  OP2       55.6890   75.6690    7.5020 O.co2  17  U17        -0.4373
    369  P         61.5230   76.3530    8.4580 P.3    18  G18         0.2141
    370  C5'       63.1750   74.8880    9.9110 C.3    18  G18         0.1812
    371  O5'       62.2670   74.9820    8.8220 O.3    18  G18        -0.3114
    372  C4'       63.3960   73.4500   10.3110 C.3    18  G18         0.1773
    373  O4'       62.1560   72.8740   10.7960 O.3    18  G18        -0.3307
    374  C3'       63.8470   72.5320    9.1860 C.3    18  G18         0.1860
    375  O3'       65.2570   72.5630    9.0300 O.3    18  G18        -0.3112
    376  C2'       63.2960   71.1680    9.5910 C.3    18  G18         0.2309
    377  O2'       64.1850   70.5150   10.4860 O.3    18  G18        -0.2156
    378  C1'       62.0230   71.5400   10.3580 C.3    18  G18         0.2408
    379  N1        57.9080   68.8180    8.8930 N.ar   18  G18        -0.1709
    380  C2        58.9220   68.4530    9.7460 C.ar   18  G18         0.2606
    381  N2        58.8320   67.2230   10.2740 N.pl3  18  G18        -0.0859
    382  N3        59.9500   69.2340   10.0610 N.ar   18  G18        -0.1918
    383  C4        59.8820   70.4370    9.4390 C.ar   18  G18         0.1723
    384  C5        58.9110   70.8880    8.5700 C.ar   18  G18         0.1748
    385  C6        57.8210   70.0460    8.2430 C.ar   18  G18         0.3023
    386  O6        56.8670   70.2820    7.4880 O.2    18  G18        -0.2633
    387  N7        59.1920   72.1770    8.1410 N.ar   18  G18        -0.2173
    388  C8        60.3060   72.4790    8.7460 C.ar   18  G18         0.1817
    389  N9        60.7930   71.4710    9.5430 N.ar   18  G18        -0.2693
    390  OP1       62.5310   77.1670    7.7450 O.2    18  G18        -0.5172
    391  OP2       60.2340   76.0150    7.8100 O.co2  18  G18        -0.4373
    392  P         65.9930   72.4290    7.6130 P.3    19  G19         0.2141
    393  C5'       67.2210   70.1040    7.5300 C.3    19  G19         0.1812
    394  O5'       66.5020   71.0640    8.2880 O.3    19  G19        -0.3114
    395  C4'       66.4500   68.8100    7.4490 C.3    19  G19         0.1773
    396  O4'       65.0620   69.0780    7.7570 O.3    19  G19        -0.3307
    397  C3'       66.4500   68.1420    6.0830 C.3    19  G19         0.1860
    398  O3'       67.5870   67.3080    5.9070 O.3    19  G19        -0.3112
    399  C2'       65.0890   67.4470    6.0160 C.3    19  G19         0.2309
    400  O2'       65.1390   66.1630    6.6130 O.3    19  G19        -0.2156
    401  C1'       64.2190   68.3310    6.9070 C.3    19  G19         0.2408
    402  N1        59.4550   69.5260    5.5610 N.ar   19  G19        -0.1709
    403  C2        59.9250   68.4610    6.2890 C.ar   19  G19         0.2606
    404  N2        59.0090   67.5940    6.7240 N.pl3  19  G19        -0.0859
    405  N3        61.2000   68.2530    6.5790 N.ar   19  G19        -0.1918
    406  C4        61.9890   69.2230    6.0650 C.ar   19  G19         0.1723
    407  C5        61.6230   70.3240    5.3250 C.ar   19  G19         0.1748
    408  C6        60.2540   70.5320    5.0260 C.ar   19  G19         0.3023
    409  O6        59.7360   71.4540    4.3820 O.2    19  G19        -0.2633
    410  N7        62.7410   71.0760    4.9880 N.ar   19  G19        -0.2173
    411  C8        63.7400   70.4250    5.5190 C.ar   19  G19         0.1817
    412  N9        63.3580   69.2840    6.1780 N.ar   19  G19        -0.2693
    413  OP1       66.8750   73.5340    8.0690 O.3    19  G19        -0.4373
    414  OP2       64.6270   72.5230    7.0380 O.co2  19  G19        -0.5172
    415  P         67.6150   65.7360    5.5670 P.3    20  A20         0.2141
    416  C5'       67.9460   64.0890    7.6020 C.3    20  A20         0.1812
    417  O5'       67.0850   64.9430    6.8530 O.3    20  A20        -0.3114
    418  C4'       67.5280   62.6360    7.5340 C.3    20  A20         0.1773
    419  O4'       66.0820   62.5630    7.6950 O.3    20  A20        -0.3307
    420  C3'       67.8620   61.9210    6.2210 C.3    20  A20         0.1860
    421  O3'       68.6420   60.7300    6.3910 O.3    20  A20        -0.3112
    422  C2'       66.5170   61.6060    5.5640 C.3    20  A20         0.2309
    423  O2'       66.4340   60.3110    5.0070 O.3    20  A20        -0.2156
    424  C1'       65.4870   61.7770    6.6780 C.3    20  A20         0.2408
    425  N1        60.4100   61.5830    5.5590 N.ar   20  A20        -0.2040
    426  C2        61.2440   60.6640    6.0620 C.ar   20  A20         0.2016
    427  N3        62.5460   60.7630    6.3350 N.ar   20  A20        -0.2048
    428  C4        63.0050   61.9850    6.0340 C.ar   20  A20         0.1692
    429  C5        62.2660   63.0330    5.5100 C.ar   20  A20         0.1518
    430  C6        60.8980   62.8030    5.2630 C.ar   20  A20         0.1919
    431  N6        60.0720   63.7260    4.7600 N.pl3  20  A20        -0.1054
    432  N7        63.0610   64.1480    5.3250 N.ar   20  A20        -0.2193
    433  C8        64.2430   63.7560    5.7330 C.ar   20  A20         0.1816
    434  N9        64.2890   62.4690    6.1860 N.ar   20  A20        -0.2693
    435  OP1       69.0420   65.3530    5.4880 O.3    20  A20        -0.4373
    436  OP2       66.7090   65.4630    4.4300 O.co2  20  A20        -0.5172
    437  P         68.5220   59.5500    7.4710 P.3    21  G21         0.2141
    438  C5'       66.7640   58.7750    9.2080 C.3    21  G21         0.1812
    439  O5'       67.1760   59.7830    8.2930 O.3    21  G21        -0.3114
    440  C4'       65.4930   59.1890    9.8960 C.3    21  G21         0.1773
    441  O4'       64.5190   59.4260    8.8450 O.3    21  G21        -0.3307
    442  C3'       64.8880   58.1430   10.8290 C.3    21  G21         0.1860
    443  O3'       64.9790   58.4680   12.2120 O.3    21  G21        -0.3112
    444  C2'       63.4160   58.0500   10.4410 C.3    21  G21         0.2309
    445  O2'       62.5550   58.6780   11.3650 O.3    21  G21        -0.2156
    446  C1'       63.3090   58.7420    9.0910 C.3    21  G21         0.2408
    447  N1        60.1050   55.3250    7.2780 N.ar   21  G21        -0.1709
    448  C2        59.9210   56.3060    8.2230 C.ar   21  G21         0.2606
    449  N2        58.7070   56.3920    8.7800 N.pl3  21  G21        -0.0859
    450  N3        60.8630   57.1520    8.6010 N.ar   21  G21        -0.1918
    451  C4        62.0250   56.9310    7.9480 C.ar   21  G21         0.1723
    452  C5        62.3180   55.9880    6.9950 C.ar   21  G21         0.1748
    453  C6        61.2990   55.0880    6.5990 C.ar   21  G21         0.3023
    454  O6        61.3600   54.1760    5.7640 O.2    21  G21        -0.2633
    455  N7        63.6410   56.1110    6.5820 N.ar   21  G21        -0.2173
    456  C8        64.1100   57.1080    7.2850 C.ar   21  G21         0.1817
    457  N9        63.1670   57.6710    8.1090 N.ar   21  G21        -0.2693
    458  OP1       69.5920   59.7330    8.4770 O.3    21  G21        -0.4373
    459  OP2       68.4120   58.2700    6.7380 O.co2  21  G21        -0.5172
    460  P         65.0450   57.1400   13.1100 P.3    22  G22         0.2141
    461  C5'       62.6410   57.6690   13.9630 C.3    22  G22         0.1812
    462  O5'       63.5120   56.7390   13.3380 O.3    22  G22        -0.3114
    463  C4'       61.1850   57.3510   13.7280 C.3    22  G22         0.1773
    464  O4'       60.8820   57.2950   12.3080 O.3    22  G22        -0.3307
    465  C3'       60.7020   56.0010   14.2230 C.3    22  G22         0.1860
    466  O3'       60.5490   55.9320   15.6250 O.3    22  G22        -0.3112
    467  C2'       59.3960   55.8550   13.4580 C.3    22  G22         0.2309
    468  O2'       58.4140   56.7340   13.9860 O.3    22  G22        -0.2156
    469  C1'       59.8270   56.3790   12.0890 C.3    22  G22         0.2408
    470  N1        58.5020   52.1810    9.5410 N.ar   22  G22        -0.1709
    471  C2        57.7240   53.0410   10.2790 C.ar   22  G22         0.2606
    472  N2        56.4180   52.7460   10.3540 N.pl3  22  G22        -0.0859
    473  N3        58.1930   54.1150   10.9000 N.ar   22  G22        -0.1918
    474  C4        59.5290   54.2600   10.7210 C.ar   22  G22         0.1723
    475  C5        60.3880   53.4600   10.0040 C.ar   22  G22         0.1748
    476  C6        59.8750   52.3170    9.3450 C.ar   22  G22         0.3023
    477  O6        60.4860   51.4870    8.6590 O.2    22  G22        -0.2633
    478  N7        61.6840   53.9550   10.0650 N.ar   22  G22        -0.2173
    479  C8        61.5850   55.0260   10.8060 C.ar   22  G22         0.1817
    480  N9        60.3040   55.2750   11.2350 N.ar   22  G22        -0.2693
    481  OP1       65.5530   57.4700   14.4600 O.3    22  G22        -0.4373
    482  OP2       65.6870   56.0770   12.3030 O.co2  22  G22        -0.5172
    483  P         60.9690   54.5650   16.3290 P.3    23  G23         0.2141
    484  C5'       58.4270   54.2230   16.6710 C.3    23  G23         0.1812
    485  O5'       59.6460   53.6770   16.1940 O.3    23  G23        -0.3114
    486  C4'       57.2350   53.4160   16.2250 C.3    23  G23         0.1773
    487  O4'       57.1480   53.4240   14.7770 O.3    23  G23        -0.3307
    488  C3'       57.2520   51.9360   16.5740 C.3    23  G23         0.1860
    489  O3'       56.8930   51.6640   17.9170 O.3    23  G23        -0.3112
    490  C2'       56.2670   51.3680   15.5630 C.3    23  G23         0.2309
    491  O2'       54.9350   51.6770   15.9420 O.3    23  G23        -0.2156
    492  C1'       56.6210   52.1940   14.3280 C.3    23  G23         0.2408
    493  N1        57.4790   48.5070   10.9440 N.ar   23  G23        -0.1709
    494  C2        56.2970   48.9050   11.5270 C.ar   23  G23         0.2606
    495  N2        55.1920   48.2340   11.1670 N.pl3  23  G23        -0.0859
    496  N3        56.2030   49.8950   12.4040 N.ar   23  G23        -0.1918
    497  C4        57.4080   50.4590   12.6540 C.ar   23  G23         0.1723
    498  C5        58.6370   50.1360   12.1280 C.ar   23  G23         0.1748
    499  C6        58.7250   49.0800   11.1930 C.ar   23  G23         0.3023
    500  O6        59.7350   48.6510   10.6170 O.2    23  G23        -0.2633
    501  N7        59.6280   50.9610   12.6470 N.ar   23  G23        -0.2173
    502  C8        58.9880   51.7540   13.4640 C.ar   23  G23         0.1817
    503  N9        57.6370   51.5070   13.5130 N.ar   23  G23        -0.2693
    504  OP1       61.1010   54.8020   17.7850 O.3    23  G23        -0.4373
    505  OP2       62.0740   53.9500   15.5580 O.co2  23  G23        -0.5172
    506  P         57.4970   50.3750   18.6480 P.3    24  A24         0.2141
    507  C5'       59.7710   51.6440   18.9040 C.3    24  A24         0.1812
    508  O5'       59.0680   50.5240   18.3860 O.3    24  A24        -0.3114
    509  C4'       60.8890   51.2050   19.8140 C.3    24  A24         0.1773
    510  O4'       60.3450   50.7740   21.0860 O.3    24  A24        -0.3307
    511  C3'       61.6980   50.0160   19.3220 C.3    24  A24         0.1860
    512  O3'       62.7190   50.3980   18.4150 O.3    24  A24        -0.3112
    513  C2'       62.2290   49.3960   20.6090 C.3    24  A24         0.2309
    514  O2'       63.4030   50.0670   21.0430 O.3    24  A24        -0.2156
    515  C1'       61.1070   49.7040   21.6010 C.3    24  A24         0.2408
    516  N1        60.5630   45.0180   23.6950 N.ar   24  A24        -0.2040
    517  C2        61.6010   45.8600   23.6410 C.ar   24  A24         0.2016
    518  N3        61.6780   47.0660   23.0790 N.ar   24  A24        -0.2048
    519  C4        60.5090   47.3990   22.5130 C.ar   24  A24         0.1692
    520  C5        59.3540   46.6410   22.4860 C.ar   24  A24         0.1518
    521  C6        59.4020   45.3840   23.1180 C.ar   24  A24         0.1919
    522  N6        58.3610   44.5470   23.1690 N.pl3  24  A24        -0.1054
    523  N7        58.3460   47.3070   21.8120 N.ar   24  A24        -0.2193
    524  C8        58.9040   48.4390   21.4510 C.ar   24  A24         0.1816
    525  N9        60.2100   48.5580   21.8380 N.ar   24  A24        -0.2693
    526  OP1       57.1140   49.1650   17.8870 O.2    24  A24        -0.5172
    527  OP2       57.2250   50.4600   20.1000 O.co2  24  A24        -0.4373
    528  P         63.0850   49.4790   17.1610 P.3    25  C25         0.2141
    529  C5'       64.7610   48.0600   18.5780 C.3    25  C25         0.1812
    530  O5'       63.5490   48.1070   17.8400 O.3    25  C25        -0.3114
    531  C4'       65.0200   46.6780   19.1220 C.3    25  C25         0.1773
    532  O4'       64.0750   46.3750   20.1790 O.3    25  C25        -0.3307
    533  C3'       64.8460   45.5370   18.1340 C.3    25  C25         0.1860
    534  O3'       65.9770   45.3610   17.3000 O.3    25  C25        -0.3112
    535  C2'       64.5680   44.3430   19.0390 C.3    25  C25         0.2309
    536  O2'       65.7780   43.8200   19.5680 O.3    25  C25        -0.2156
    537  C1'       63.7820   44.9930   20.1780 C.3    25  C25         0.2420
    538  N1        62.3090   44.7950   20.1000 N.ar   25  C25        -0.2535
    539  C2        61.7700   43.5990   20.5760 C.ar   25  C25         0.3532
    540  O2        62.5350   42.7470   21.0420 O.2    25  C25        -0.2443
    541  N3        60.4310   43.4080   20.5140 N.ar   25  C25        -0.1739
    542  C4        59.6470   44.3580   20.0060 C.ar   25  C25         0.1759
    543  N4        58.3310   44.1230   19.9670 N.pl3  25  C25        -0.1070
    544  C5        60.1790   45.5890   19.5160 C.ar   25  C25         0.0566
    545  C6        61.5030   45.7650   19.5810 C.ar   25  C25         0.0850
    546  OP1       64.3170   50.0090   16.5360 O.3    25  C25        -0.4373
    547  OP2       61.8700   49.2490   16.3450 O.co2  25  C25        -0.5172
    548  P         65.7770   44.8820   15.7890 P.3    26  U26         0.2141
    549  C5'       66.1640   42.3740   16.4310 C.3    26  U26         0.1812
    550  O5'       65.2780   43.3690   15.9410 O.3    26  U26        -0.3114
    551  C4'       65.5340   41.0060   16.3700 C.3    26  U26         0.1773
    552  O4'       64.4500   40.9220   17.3300 O.3    26  U26        -0.3307
    553  C3'       64.8880   40.6420   15.0430 C.3    26  U26         0.1860
    554  O3'       65.8280   40.1620   14.0970 O.3    26  U26        -0.3112
    555  C2'       63.8410   39.6090   15.4410 C.3    26  U26         0.2309
    556  O2'       64.4300   38.3260   15.5990 O.3    26  U26        -0.2156
    557  C1'       63.4120   40.1140   16.8190 C.3    26  U26         0.2420
    558  N1        62.1390   40.8950   16.8380 N.ar   26  U26        -0.2534
    559  C2        60.9410   40.2160   16.8950 C.ar   26  U26         0.3546
    560  O2        60.8680   39.0000   16.9230 O.2    26  U26        -0.2443
    561  N3        59.8240   41.0150   16.9190 N.ar   26  U26        -0.1530
    562  C4        59.7890   42.3970   16.8930 C.ar   26  U26         0.2846
    563  O4        58.7100   42.9790   16.9180 O.2    26  U26        -0.2650
    564  C5        61.0790   43.0340   16.8360 C.ar   26  U26         0.0814
    565  C6        62.1820   42.2750   16.8140 C.ar   26  U26         0.0870
    566  OP1       67.1080   44.7640   15.1520 O.2    26  U26        -0.5172
    567  OP2       64.7110   45.6980   15.1630 O.co2  26  U26        -0.4373
    568  P         65.7030   40.5720   12.5580 P.3    27  G27         0.2141
    569  C5'       64.4200   38.3270   12.1910 C.3    27  G27         0.1812
    570  O5'       64.4240   39.7420   12.0760 O.3    27  G27        -0.3114
    571  C4'       63.0520   37.7580   11.9160 C.3    27  G27         0.1773
    572  O4'       62.1880   37.9810   13.0610 O.3    27  G27        -0.3307
    573  C3'       62.2960   38.3860   10.7550 C.3    27  G27         0.1860
    574  O3'       62.7110   37.9030    9.4880 O.3    27  G27        -0.3112
    575  C2'       60.8500   38.0660   11.1100 C.3    27  G27         0.2309
    576  O2'       60.5520   36.7070   10.8300 O.3    27  G27        -0.2156
    577  C1'       60.8750   38.2620   12.6260 C.3    27  G27         0.2408
    578  N1        57.2560   41.6530   13.8310 N.ar   27  G27        -0.1709
    579  C2        57.1360   40.3130   13.5450 C.ar   27  G27         0.2606
    580  N2        55.9000   39.8010   13.5790 N.pl3  27  G27        -0.0859
    581  N3        58.1550   39.5210   13.2450 N.ar   27  G27        -0.1918
    582  C4        59.3270   40.1950   13.2540 C.ar   27  G27         0.1723
    583  C5        59.5510   41.5250   13.5280 C.ar   27  G27         0.1748
    584  C6        58.4560   42.3600   13.8480 C.ar   27  G27         0.3023
    585  O6        58.4670   43.5700   14.1200 O.2    27  G27        -0.2633
    586  N7        60.9020   41.8280   13.4330 N.ar   27  G27        -0.2173
    587  C8        61.4580   40.6940   13.1090 C.ar   27  G27         0.1817
    588  N9        60.5640   39.6570   12.9860 N.ar   27  G27        -0.2693
    589  OP1       66.8310   39.9690   11.8130 O.2    27  G27        -0.5172
    590  OP2       65.4250   42.0230   12.4550 O.co2  27  G27        -0.4373
    591  P         62.1490   38.5510    8.1340 P.3    28  G28         0.2141
    592  C5'       59.7740   39.5740    7.6070 C.3    28  G28         0.1812
    593  O5'       60.6620   38.9760    8.5370 O.3    28  G28        -0.3114
    594  C4'       58.3460   39.4540    8.0760 C.3    28  G28         0.1773
    595  O4'       58.2620   39.7550    9.4930 O.3    28  G28        -0.3307
    596  C3'       57.3560   40.4090    7.4310 C.3    28  G28         0.1860
    597  O3'       56.9120   39.9530    6.1650 O.3    28  G28        -0.3112
    598  C2'       56.2490   40.4910    8.4740 C.3    28  G28         0.2309
    599  O2'       55.4150   39.3450    8.4090 O.3    28  G28        -0.2156
    600  C1'       57.0490   40.4210    9.7750 C.3    28  G28         0.2408
    601  N1        55.3160   44.6170   12.1340 N.ar   28  G28        -0.1709
    602  C2        54.6330   43.4770   11.7870 C.ar   28  G28         0.2606
    603  N2        53.3310   43.4550   12.1100 N.pl3  28  G28        -0.0859
    604  N3        55.1860   42.4370   11.1710 N.ar   28  G28        -0.1918
    605  C4        56.5050   42.6400   10.9270 C.ar   28  G28         0.1723
    606  C5        57.2700   43.7440   11.2330 C.ar   28  G28         0.1748
    607  C6        56.6670   44.8410   11.8900 C.ar   28  G28         0.3023
    608  O6        57.1930   45.9050   12.2430 O.2    28  G28        -0.2633
    609  N7        58.5830   43.5690   10.8170 N.ar   28  G28        -0.2173
    610  C8        58.5900   42.3830   10.2760 C.ar   28  G28         0.1817
    611  N9        57.3660   41.7600   10.3050 N.ar   28  G28        -0.2693
    612  OP1       61.9630   37.4720    7.1370 O.2    28  G28        -0.5172
    613  OP2       62.9350   39.7600    7.7960 O.co2  28  G28        -0.4373
    614  P         56.8340   40.9530    4.9200 P.3    29  C29         0.2141
    615  C5'       54.3270   41.3320    5.5860 C.3    29  C29         0.1812
    616  O5'       55.5950   41.8960    5.2860 O.3    29  C29        -0.3114
    617  C4'       53.4580   42.3260    6.3110 C.3    29  C29         0.1773
    618  O4'       54.0110   42.5720    7.6290 O.3    29  C29        -0.3307
    619  C3'       53.3800   43.7110    5.6870 C.3    29  C29         0.1860
    620  O3'       52.4600   43.7980    4.6120 O.3    29  C29        -0.3112
    621  C2'       53.0160   44.5860    6.8790 C.3    29  C29         0.2309
    622  O2'       51.6410   44.4470    7.2050 O.3    29  C29        -0.2156
    623  C1'       53.8370   43.9260    7.9830 C.3    29  C29         0.2420
    624  N1        55.1810   44.5390    8.1260 N.ar   29  C29        -0.2535
    625  C2        55.3230   45.7310    8.8430 C.ar   29  C29         0.3532
    626  O2        54.3230   46.2550    9.3490 O.2    29  C29        -0.2443
    627  N3        56.5570   46.2780    8.9600 N.ar   29  C29        -0.1739
    628  C4        57.6080   45.6780    8.3990 C.ar   29  C29         0.1759
    629  N4        58.8050   46.2540    8.5420 N.pl3  29  C29        -0.1070
    630  C5        57.4820   44.4620    7.6670 C.ar   29  C29         0.0566
    631  C6        56.2610   43.9330    7.5560 C.ar   29  C29         0.0850
    632  OP1       56.3760   40.1880    3.7390 O.2    29  C29        -0.5172
    633  OP2       58.0670   41.7710    4.8610 O.co2  29  C29        -0.4373
    634  P         52.3820   45.1460    3.7530 P.3    30  C30         0.2141
    635  C5'       51.9250   47.5920    4.5410 C.3    30  C30         0.1812
    636  O5'       51.7940   46.2040    4.7980 O.3    30  C30        -0.3114
    637  C4'       51.7370   48.4040    5.7950 C.3    30  C30         0.1773
    638  O4'       52.6320   47.9280    6.8340 O.3    30  C30        -0.3307
    639  C3'       52.0650   49.8810    5.6660 C.3    30  C30         0.1860
    640  O3'       50.9980   50.6200    5.1000 O.3    30  C30        -0.3112
    641  C2'       52.3890   50.2740    7.1010 C.3    30  C30         0.2309
    642  O2'       51.1930   50.4480    7.8460 O.3    30  C30        -0.2156
    643  C1'       53.0910   49.0150    7.6090 C.3    30  C30         0.2420
    644  N1        54.5740   49.0630    7.4900 N.ar   30  C30        -0.2535
    645  C2        55.3100   49.9590    8.2710 C.ar   30  C30         0.3532
    646  O2        54.7140   50.7100    9.0510 O.2    30  C30        -0.2443
    647  N3        56.6600   49.9840    8.1500 N.ar   30  C30        -0.1739
    648  C4        57.2680   49.1620    7.2960 C.ar   30  C30         0.1759
    649  N4        58.6010   49.2240    7.2100 N.pl3  30  C30        -0.1070
    650  C5        56.5360   48.2390    6.4920 C.ar   30  C30         0.0566
    651  C6        55.2050   48.2230    6.6220 C.ar   30  C30         0.0850
    652  OP1       51.3070   45.0080    2.7470 O.2    30  C30        -0.5172
    653  OP2       53.7450   45.5590    3.3500 O.co2  30  C30        -0.4373
    654  P         51.2990   51.8440    4.1170 P.3    31  C31         0.2141
    655  C5'       51.0820   53.3740    6.2300 C.3    31  C31         0.1812
    656  O5'       51.8430   52.9830    5.0980 O.3    31  C31        -0.3114
    657  C4'       51.8090   54.4260    7.0240 C.3    31  C31         0.1773
    658  O4'       52.8590   53.8110    7.8130 O.3    31  C31        -0.3307
    659  C3'       52.5410   55.4720    6.2010 C.3    31  C31         0.1860
    660  O3'       51.6900   56.4850    5.6970 O.3    31  C31        -0.3112
    661  C2'       53.5880   55.9800    7.1820 C.3    31  C31         0.2309
    662  O2'       53.0050   56.8660    8.1260 O.3    31  C31        -0.2156
    663  C1'       53.9620   54.6870    7.9050 C.3    31  C31         0.2420
    664  N1        55.1630   54.0270    7.3260 N.ar   31  C31        -0.2535
    665  C2        56.3920   54.6840    7.4040 C.ar   31  C31         0.3532
    666  O2        56.4380   55.7910    7.9510 O.2    31  C31        -0.2443
    667  N3        57.4920   54.0940    6.8760 N.ar   31  C31        -0.1739
    668  C4        57.3910   52.8990    6.2950 C.ar   31  C31         0.1759
    669  N4        58.5050   52.3570    5.7950 N.pl3  31  C31        -0.1070
    670  C5        56.1450   52.2120    6.2050 C.ar   31  C31         0.0566
    671  C6        55.0660   52.8050    6.7270 C.ar   31  C31         0.0850
    672  OP1       50.0090   52.3740    3.6200 O.3    31  C31        -0.4373
    673  OP2       52.3820   51.4660    3.1820 O.co2  31  C31        -0.5172
    674  P         51.9830   57.0960    4.2500 P.3    32  G32         0.2141
    675  C5'       53.4280   59.0240    5.2410 C.3    32  G32         0.1812
    676  O5'       53.3810   57.8500    4.4440 O.3    32  G32        -0.3114
    677  C4'       54.8250   59.5840    5.3310 C.3    32  G32         0.1773
    678  O4'       55.6840   58.6610    6.0500 O.3    32  G32        -0.3307
    679  C3'       55.5540   59.7960    4.0140 C.3    32  G32         0.1860
    680  O3'       55.1460   60.9650    3.3240 O.3    32  G32        -0.3112
    681  C2'       57.0090   59.8210    4.4600 C.3    32  G32         0.2309
    682  O2'       57.3270   61.0580    5.0800 O.3    32  G32        -0.2156
    683  C1'       56.9980   58.7370    5.5370 C.3    32  G32         0.2408
    684  N1        60.8040   55.8290    3.8450 N.ar   32  G32        -0.1709
    685  C2        60.8370   57.1110    4.3450 C.ar   32  G32         0.2606
    686  N2        62.0400   57.7020    4.4030 N.pl3  32  G32        -0.0859
    687  N3        59.7640   57.7690    4.7580 N.ar   32  G32        -0.1918
    688  C4        58.6390   57.0260    4.6300 C.ar   32  G32         0.1723
    689  C5        58.5030   55.7450    4.1480 C.ar   32  G32         0.1748
    690  C6        59.6540   55.0520    3.7070 C.ar   32  G32         0.3023
    691  O6        59.7280   53.9040    3.2440 O.2    32  G32        -0.2633
    692  N7        57.1730   55.3450    4.1820 N.ar   32  G32        -0.2173
    693  C8        56.5410   56.3740    4.6760 C.ar   32  G32         0.1817
    694  N9        57.3710   57.4270    4.9760 N.ar   32  G32        -0.2693
    695  OP1       51.0130   58.1850    4.0000 O.3    32  G32        -0.4373
    696  OP2       52.1480   55.9910    3.2780 O.co2  32  G32        -0.5172
    697  P         54.7710   60.8580    1.7710 P.3    33  A33         0.2141
    698  C5'       56.7400   62.5080    1.2630 C.3    33  A33         0.1812
    699  O5'       55.3620   62.1950    1.1100 O.3    33  A33        -0.3114
    700  C4'       57.1580   63.7650    0.5340 C.3    33  A33         0.1773
    701  O4'       58.2060   64.4030    1.3080 O.3    33  A33        -0.3307
    702  C3'       57.7690   63.5700   -0.8490 C.3    33  A33         0.1860
    703  O3'       56.8180   63.4730   -1.9050 O.3    33  A33        -0.3112
    704  C2'       58.7820   64.7060   -0.9880 C.3    33  A33         0.2309
    705  O2'       58.1860   65.8970   -1.4740 O.3    33  A33        -0.2156
    706  C1'       59.1900   64.9600    0.4630 C.3    33  A33         0.2408
    707  N1        61.9250   60.8590    2.0760 N.ar   33  A33        -0.2040
    708  C2        60.6210   61.0150    1.8180 C.ar   33  A33         0.2016
    709  N3        59.9680   62.0990    1.4020 N.ar   33  A33        -0.2048
    710  C4        60.8110   63.1300    1.2440 C.ar   33  A33         0.1692
    711  C5        62.1750   63.1230    1.4700 C.ar   33  A33         0.1518
    712  C6        62.7470   61.9140    1.9100 C.ar   33  A33         0.1919
    713  N6        64.0510   61.7680    2.1650 N.pl3  33  A33        -0.1054
    714  N7        62.7240   64.3650    1.2030 N.ar   33  A33        -0.2193
    715  C8        61.6960   65.0860    0.8280 C.ar   33  A33         0.1816
    716  N9        60.5100   64.4050    0.8220 N.ar   33  A33        -0.2693
    717  OP1       53.3030   60.9950    1.6320 O.3    33  A33        -0.4373
    718  OP2       55.4560   59.6690    1.2140 O.co2  33  A33        -0.5172
    719  P         55.7740   64.5900   -2.4150 P.3    34  C34         0.2141
    720  C5'       54.0640   66.1350   -1.2110 C.3    34  C34         0.1812
    721  O5'       54.8750   64.9650   -1.1480 O.3    34  C34        -0.3114
    722  C4'       52.7040   65.9290   -0.5870 C.3    34  C34         0.1773
    723  O4'       51.7460   65.5310   -1.6050 O.3    34  C34        -0.3307
    724  C3'       52.6360   64.8650    0.5040 C.3    34  C34         0.1860
    725  O3'       51.7130   65.2800    1.5080 O.3    34  C34        -0.3112
    726  C2'       52.0760   63.6540   -0.2370 C.3    34  C34         0.2309
    727  O2'       51.4110   62.7200    0.5860 O.3    34  C34        -0.2156
    728  C1'       51.1230   64.3180   -1.2270 C.3    34  C34         0.2420
    729  N1        50.8790   63.5290   -2.4660 N.ar   34  C34        -0.2535
    730  C2        49.6030   63.0190   -2.7220 C.ar   34  C34         0.3532
    731  O2        48.6960   63.2270   -1.9070 O.2    34  C34        -0.2443
    732  N3        49.3980   62.3060   -3.8580 N.ar   34  C34        -0.1739
    733  C4        50.4050   62.1050   -4.7110 C.ar   34  C34         0.1759
    734  N4        50.1580   61.3970   -5.8180 N.pl3  34  C34        -0.1070
    735  C5        51.7110   62.6200   -4.4660 C.ar   34  C34         0.0566
    736  C6        51.9010   63.3200   -3.3440 C.ar   34  C34         0.0850
    737  OP1       54.9090   63.9440   -3.4260 O.2    34  C34        -0.5172
    738  OP2       56.4500   65.8540   -2.7730 O.co2  34  C34        -0.4373
    739  P         52.1110   65.0610    3.0360 P.3    35  G35         0.2141
    740  C5'       53.4860   66.5590    4.6750 C.3    35  G35         0.1812
    741  O5'       52.9210   66.3970    3.3800 O.3    35  G35        -0.3114
    742  C4'       54.4800   65.4640    4.9680 C.3    35  G35         0.1773
    743  O4'       55.3370   65.3040    3.8080 O.3    35  G35        -0.3307
    744  C3'       55.3870   65.7120    6.1650 C.3    35  G35         0.1860
    745  O3'       55.5420   64.5160    6.9240 O.3    35  G35        -0.3112
    746  C2'       56.7260   66.1150    5.5550 C.3    35  G35         0.2309
    747  O2'       57.8360   65.6080    6.2620 O.3    35  G35        -0.2156
    748  C1'       56.6890   65.5500    4.1370 C.3    35  G35         0.2408
    749  N1        60.7150   68.0050    2.1460 N.ar   35  G35        -0.1709
    750  C2        60.6880   67.0570    3.1410 C.ar   35  G35         0.2606
    751  N2        61.8750   66.7240    3.6690 N.pl3  35  G35        -0.0859
    752  N3        59.5810   66.4750    3.5860 N.ar   35  G35        -0.1918
    753  C4        58.4790   66.9310    2.9420 C.ar   35  G35         0.1723
    754  C5        58.4060   67.8720    1.9370 C.ar   35  G35         0.1748
    755  C6        59.5950   68.4830    1.4720 C.ar   35  G35         0.3023
    756  O6        59.7230   69.3410    0.5860 O.2    35  G35        -0.2633
    757  N7        57.0920   68.0640    1.5350 N.ar   35  G35        -0.2173
    758  C8        56.4070   67.2520    2.2890 C.ar   35  G35         0.1817
    759  N9        57.1810   66.5240    3.1600 N.ar   35  G35        -0.2693
    760  OP1       53.1260   63.9830    3.0900 O.2    35  G35        -0.5172
    761  OP2       50.8870   64.9870    3.8660 O.co2  35  G35        -0.4373
    762  P         55.6700   64.6790    8.5080 P.3    36  A36         0.2141
    763  C5'       56.1500   62.1600    8.8090 C.3    36  A36         0.1812
    764  O5'       56.6480   63.4860    8.9260 O.3    36  A36        -0.3114
    765  C4'       57.1480   61.1330    9.2760 C.3    36  A36         0.1773
    766  O4'       58.2650   61.1590    8.3500 O.3    36  A36        -0.3307
    767  C3'       57.7230   61.3850   10.6680 C.3    36  A36         0.1860
    768  O3'       57.3180   60.4310   11.6440 O.3    36  A36        -0.3112
    769  C2'       59.2410   61.3470   10.5180 C.3    36  A36         0.2309
    770  O2'       59.8520   60.2620   11.1850 O.3    36  A36        -0.2156
    771  C1'       59.5050   61.2580    9.0220 C.3    36  A36         0.2408
    772  N1        63.6420   64.1410    9.6620 N.ar   36  A36        -0.2040
    773  C2        63.3030   62.9290   10.1120 C.ar   36  A36         0.2016
    774  N3        62.1880   62.2410    9.8850 N.ar   36  A36        -0.2048
    775  C4        61.3560   62.9320    9.0930 C.ar   36  A36         0.1692
    776  C5        61.5570   64.1830    8.5540 C.ar   36  A36         0.1518
    777  C6        62.7790   64.8080    8.8700 C.ar   36  A36         0.1919
    778  N6        63.1230   66.0180    8.4260 N.pl3  36  A36        -0.1054
    779  N7        60.4660   64.5640    7.7880 N.ar   36  A36        -0.2193
    780  C8        59.6370   63.5480    7.8830 C.ar   36  A36         0.1816
    781  N9        60.1330   62.5190    8.6340 N.ar   36  A36        -0.2693
    782  OP1       54.3700   64.3190    9.1180 O.3    36  A36        -0.4373
    783  OP2       56.3130   65.9770    8.8120 O.co2  36  A36        -0.5172
    784  P         57.0510   61.1340   13.0610 P.3    37  A37         0.2141
    785  C5'       59.1950   60.3600   14.3600 C.3    37  A37         0.1812
    786  O5'       58.5100   61.3960   13.6710 O.3    37  A37        -0.3114
    787  C4'       60.5570   60.7950   14.8460 C.3    37  A37         0.1773
    788  O4'       61.3360   61.3180   13.7400 O.3    37  A37        -0.3307
    789  C3'       60.5930   61.9160   15.8760 C.3    37  A37         0.1860
    790  O3'       60.3180   61.4780   17.1950 O.3    37  A37        -0.3112
    791  C2'       62.0070   62.4590   15.7110 C.3    37  A37         0.2309
    792  O2'       62.9460   61.6120   16.3590 O.3    37  A37        -0.2156
    793  C1'       62.2050   62.3320   14.2020 C.3    37  A37         0.2408
    794  N1        63.8540   67.0400   12.8760 N.ar   37  A37        -0.2040
    795  C2        64.4250   66.0570   13.5820 C.ar   37  A37         0.2016
    796  N3        63.9390   64.8550   13.8910 N.ar   37  A37        -0.2048
    797  C4        62.7070   64.6940   13.3840 C.ar   37  A37         0.1692
    798  C5        61.9900   65.6120   12.6390 C.ar   37  A37         0.1518
    799  C6        62.6140   66.8490   12.3800 C.ar   37  A37         0.1919
    800  N6        62.0400   67.8300   11.6750 N.pl3  37  A37        -0.1054
    801  N7        60.7530   65.0980   12.2890 N.ar   37  A37        -0.2193
    802  C8        60.7460   63.8980   12.8220 C.ar   37  A37         0.1816
    803  N9        61.8940   63.5890   13.4960 N.ar   37  A37        -0.2693
    804  OP1       56.4310   60.1560   13.9830 O.3    37  A37        -0.4373
    805  OP2       56.4120   62.4460   12.8080 O.co2  37  A37        -0.5172
    806  P         59.7360   62.5090   18.2740 P.3    38  A38         0.2141
    807  C5'       61.8970   63.8960   18.8430 C.3    38  A38         0.1812
    808  O5'       60.6700   63.8000   18.1340 O.3    38  A38        -0.3114
    809  C4'       62.4110   65.3110   18.8170 C.3    38  A38         0.1773
    810  O4'       62.7310   65.6760   17.4510 O.3    38  A38        -0.3307
    811  C3'       61.4150   66.3680   19.2680 C.3    38  A38         0.1860
    812  O3'       61.3780   66.5220   20.6760 O.3    38  A38        -0.3112
    813  C2'       61.8790   67.6140   18.5240 C.3    38  A38         0.2309
    814  O2'       62.9880   68.2110   19.1790 O.3    38  A38        -0.2156
    815  C1'       62.3630   67.0160   17.2040 C.3    38  A38         0.2408
    816  N1        59.6220   69.7890   13.8060 N.ar   38  A38        -0.2040
    817  C2        60.6000   70.1280   14.6520 C.ar   38  A38         0.2016
    818  N3        61.2730   69.3610   15.5080 N.ar   38  A38        -0.2048
    819  C4        60.8460   68.0900   15.4480 C.ar   38  A38         0.1692
    820  C5        59.8500   67.5900   14.6320 C.ar   38  A38         0.1518
    821  C6        59.2140   68.5050   13.7700 C.ar   38  A38         0.1919
    822  N6        58.2350   68.1640   12.9260 N.pl3  38  A38        -0.1054
    823  N7        59.6810   66.2320   14.8430 N.ar   38  A38        -0.2193
    824  C8        60.5630   65.9430   15.7690 C.ar   38  A38         0.1816
    825  N9        61.3010   67.0170   16.1800 N.ar   38  A38        -0.2693
    826  OP1       60.0390   61.9900   19.6260 O.3    38  A38        -0.4373
    827  OP2       58.3490   62.8700   17.9010 O.co2  38  A38        -0.5172
    828  P         60.0380   67.0030   21.4050 P.3    39  C39         0.2141
    829  C5'       61.0690   69.3960   21.4590 C.3    39  C39         0.1812
    830  O5'       59.9810   68.5680   21.0750 O.3    39  C39        -0.3114
    831  C4'       60.9440   70.7900   20.8990 C.3    39  C39         0.1773
    832  O4'       61.1110   70.7690   19.4570 O.3    39  C39        -0.3307
    833  C3'       59.5970   71.4660   21.0870 C.3    39  C39         0.1860
    834  O3'       59.3990   71.9780   22.3910 O.3    39  C39        -0.3112
    835  C2'       59.6300   72.5400   20.0080 C.3    39  C39         0.2309
    836  O2'       60.4620   73.6240   20.3970 O.3    39  C39        -0.2156
    837  C1'       60.3190   71.7840   18.8730 C.3    39  C39         0.2420
    838  N1        59.3240   71.1890   17.9400 N.ar   39  C39        -0.2535
    839  C2        58.7990   71.9800   16.9110 C.ar   39  C39         0.3532
    840  O2        59.1830   73.1500   16.7940 O.2    39  C39        -0.2443
    841  N3        57.8860   71.4380   16.0690 N.ar   39  C39        -0.1739
    842  C4        57.5000   70.1720   16.2290 C.ar   39  C39         0.1759
    843  N4        56.5980   69.6800   15.3740 N.pl3  39  C39        -0.1070
    844  C5        58.0210   69.3520   17.2730 C.ar   39  C39         0.0566
    845  C6        58.9210   69.8960   18.0990 C.ar   39  C39         0.0850
    846  OP1       60.2560   66.9480   22.8680 O.3    39  C39        -0.4373
    847  OP2       58.8740   66.3170   20.8000 O.co2  39  C39        -0.5172
    848  P         57.9240   71.9490   23.0070 P.3    40  C40         0.2141
    849  C5'       57.5460   74.3490   22.0720 C.3    40  C40         0.1812
    850  O5'       57.1210   72.9940   22.0980 O.3    40  C40        -0.3114
    851  C4'       56.7080   75.1910   21.1430 C.3    40  C40         0.1773
    852  O4'       56.8920   74.7570   19.7700 O.3    40  C40        -0.3307
    853  C3'       55.2030   75.1120   21.3380 C.3    40  C40         0.1860
    854  O3'       54.7300   75.8640   22.4400 O.3    40  C40        -0.3112
    855  C2'       54.6860   75.6070   19.9950 C.3    40  C40         0.2309
    856  O2'       54.8120   77.0170   19.8970 O.3    40  C40        -0.2156
    857  C1'       55.6980   74.9710   19.0430 C.3    40  C40         0.2420
    858  N1        55.1860   73.6980   18.4570 N.ar   40  C40        -0.2535
    859  C2        54.2960   73.7740   17.3790 C.ar   40  C40         0.3532
    860  O2        53.9730   74.8880   16.9470 O.2    40  C40        -0.2443
    861  N3        53.8150   72.6280   16.8370 N.ar   40  C40        -0.1739
    862  C4        54.1920   71.4510   17.3340 C.ar   40  C40         0.1759
    863  N4        53.6920   70.3500   16.7640 N.pl3  40  C40        -0.1070
    864  C5        55.0970   71.3510   18.4340 C.ar   40  C40         0.0566
    865  C6        55.5640   72.4890   18.9630 C.ar   40  C40         0.0850
    866  OP1       57.9620   72.5850   24.3430 O.3    40  C40        -0.4373
    867  OP2       57.3530   70.5950   22.8360 O.co2  40  C40        -0.5172
    868  P         53.5170   75.2770   23.3000 P.3    41  C41         0.2141
    869  C5'       51.8860   76.8810   22.0300 C.3    41  C41         0.1812
    870  O5'       52.2350   75.5510   22.3830 O.3    41  C41        -0.3114
    871  C4'       50.9560   76.9150   20.8440 C.3    41  C41         0.1773
    872  O4'       51.5750   76.2400   19.7180 O.3    41  C41        -0.3307
    873  C3'       49.6250   76.1960   21.0110 C.3    41  C41         0.1860
    874  O3'       48.6570   76.9560   21.7120 O.3    41  C41        -0.3112
    875  C2'       49.2320   75.9080   19.5700 C.3    41  C41         0.2309
    876  O2'       48.7330   77.0800   18.9430 O.3    41  C41        -0.2156
    877  C1'       50.5910   75.5740   18.9560 C.3    41  C41         0.2420
    878  N1        50.8680   74.1160   18.9910 N.ar   41  C41        -0.2535
    879  C2        50.1480   73.2610   18.1510 C.ar   41  C41         0.3532
    880  O2        49.2990   73.7380   17.3890 O.2    41  C41        -0.2443
    881  N3        50.4040   71.9310   18.1960 N.ar   41  C41        -0.1739
    882  C4        51.3290   71.4590   19.0330 C.ar   41  C41         0.1759
    883  N4        51.5460   70.1400   19.0420 N.pl3  41  C41        -0.1070
    884  C5        52.0710   72.3160   19.8990 C.ar   41  C41         0.0566
    885  C6        51.8090   73.6250   19.8470 C.ar   41  C41         0.0850
    886  OP1       53.3100   76.1380   24.4860 O.3    41  C41        -0.4373
    887  OP2       53.7050   73.8170   23.4520 O.co2  41  C41        -0.5172
    888  P         47.6190   76.2210   22.6820 P.3    42  G42         0.2141
    889  C5'       45.8320   75.6580   20.8310 C.3    42  G42         0.1812
    890  O5'       46.8350   75.2010   21.7280 O.3    42  G42        -0.3114
    891  C4'       45.2340   74.5150   20.0480 C.3    42  G42         0.1773
    892  O4'       46.2790   73.8550   19.2870 O.3    42  G42        -0.3307
    893  C3'       44.6070   73.4020   20.8750 C.3    42  G42         0.1860
    894  O3'       43.2720   73.6830   21.2550 O.3    42  G42        -0.3112
    895  C2'       44.7270   72.1910   19.9610 C.3    42  G42         0.2309
    896  O2'       43.7040   72.2060   18.9770 O.3    42  G42        -0.2156
    897  C1'       46.0660   72.4610   19.2760 C.3    42  G42         0.2408
    898  N1        48.3480   68.0890   20.5830 N.ar   42  G42        -0.1709
    899  C2        47.2250   68.2920   19.8160 C.ar   42  G42         0.2606
    900  N2        46.6260   67.1960   19.3330 N.pl3  42  G42        -0.0859
    901  N3        46.7190   69.4860   19.5390 N.ar   42  G42        -0.1918
    902  C4        47.4440   70.4810   20.1040 C.ar   42  G42         0.1723
    903  C5        48.5760   70.3830   20.8810 C.ar   42  G42         0.1748
    904  C6        49.1050   69.1020   21.1690 C.ar   42  G42         0.3023
    905  O6        50.1060   68.8200   21.8440 O.2    42  G42        -0.2633
    906  N7        49.0190   71.6420   21.2670 N.ar   42  G42        -0.2173
    907  C8        48.1620   72.4620   20.7250 C.ar   42  G42         0.1817
    908  N9        47.1810   71.8270   20.0020 N.ar   42  G42        -0.2693
    909  OP1       46.5860   77.1990   23.0920 O.2    42  G42        -0.5172
    910  OP2       48.3790   75.4610   23.7000 O.co2  42  G42        -0.4373
    911  P         42.7250   73.1920   22.6760 P.3    43  G43         0.2141
    912  C5'       41.6160   71.0270   21.7000 C.3    43  G43         0.1812
    913  O5'       42.6190   71.6010   22.5260 O.3    43  G43        -0.3114
    914  C4'       41.9190   69.5860   21.3710 C.3    43  G43         0.1773
    915  O4'       43.3050   69.4640   20.9580 O.3    43  G43        -0.3307
    916  C3'       41.7800   68.5850   22.5100 C.3    43  G43         0.1860
    917  O3'       40.4410   68.1660   22.7300 O.3    43  G43        -0.3112
    918  C2'       42.6940   67.4510   22.0650 C.3    43  G43         0.2309
    919  O2'       42.0360   66.6230   21.1170 O.3    43  G43        -0.2156
    920  C1'       43.8150   68.2070   21.3520 C.3    43  G43         0.2408
    921  N1        47.5160   65.9690   24.0770 N.ar   43  G43        -0.1709
    922  C2        46.5040   65.3950   23.3450 C.ar   43  G43         0.2606
    923  N2        46.4670   64.0550   23.3370 N.pl3  43  G43        -0.0859
    924  N3        45.5910   66.0850   22.6690 N.ar   43  G43        -0.1918
    925  C4        45.7760   67.4230   22.7900 C.ar   43  G43         0.1723
    926  C5        46.7560   68.0880   23.4950 C.ar   43  G43         0.1748
    927  C6        47.7230   67.3390   24.2090 C.ar   43  G43         0.3023
    928  O6        48.6720   67.7550   24.8890 O.2    43  G43        -0.2633
    929  N7        46.6030   69.4630   23.3660 N.ar   43  G43        -0.2173
    930  C8        45.5540   69.6010   22.6010 C.ar   43  G43         0.1817
    931  N9        44.9980   68.4060   22.2140 N.ar   43  G43        -0.2693
    932  OP1       41.3710   73.7550   22.8830 O.2    43  G43        -0.5172
    933  OP2       43.7880   73.3970   23.6860 O.co2  43  G43        -0.4373
    934  P         39.9210   67.7530   24.1920 P.3    44  C44         0.2141
    935  C5'       40.0680   65.3570   23.0760 C.3    44  C44         0.1812
    936  O5'       40.6500   66.3510   23.9080 O.3    44  C44        -0.3114
    937  C4'       40.7880   64.0420   23.2390 C.3    44  C44         0.1773
    938  O4'       42.2170   64.2740   23.1480 O.3    44  C44        -0.3307
    939  C3'       40.5970   63.3550   24.5830 C.3    44  C44         0.1860
    940  O3'       39.4400   62.5390   24.6190 O.3    44  C44        -0.3112
    941  C2'       41.8860   62.5670   24.7610 C.3    44  C44         0.2309
    942  O2'       41.8250   61.3550   24.0260 O.3    44  C44        -0.2156
    943  C1'       42.9070   63.4800   24.0870 C.3    44  C44         0.2420
    944  N1        43.6450   64.4150   24.9920 N.ar   44  C44        -0.2535
    945  C2        44.5020   63.9360   25.9920 C.ar   44  C44         0.3532
    946  O2        44.6460   62.7180   26.1480 O.2    44  C44        -0.2443
    947  N3        45.1560   64.8300   26.7760 N.ar   44  C44        -0.1739
    948  C4        44.9860   66.1400   26.5890 C.ar   44  C44         0.1759
    949  N4        45.6520   66.9810   27.3880 N.pl3  44  C44        -0.1070
    950  C5        44.1230   66.6460   25.5740 C.ar   44  C44         0.0566
    951  C6        43.4820   65.7560   24.8120 C.ar   44  C44         0.0850
    952  OP1       38.5670   67.7080   23.5850 O.2    44  C44        -0.5172
    953  OP2       40.7330   68.9190   24.6260 O.co2  44  C44        -0.4373
    954  P         38.5930   62.4270   25.9690 P.3    45  A45         0.2141
    955  C5'       40.0830   60.4370   26.8460 C.3    45  A45         0.1812
    956  O5'       39.6050   61.7640   27.0160 O.3    45  A45        -0.3114
    957  C4'       41.2500   60.1820   27.7630 C.3    45  A45         0.1773
    958  O4'       42.2910   61.1490   27.4810 O.3    45  A45        -0.3307
    959  C3'       40.9490   60.3330   29.2460 C.3    45  A45         0.1860
    960  O3'       40.4990   59.1090   29.8030 O.3    45  A45        -0.3112
    961  C2'       42.2680   60.8120   29.8410 C.3    45  A45         0.2309
    962  O2'       43.0900   59.7020   30.1650 O.3    45  A45        -0.2156
    963  C1'       42.9150   61.5650   28.6750 C.3    45  A45         0.2408
    964  N1        44.9770   65.9690   30.4460 N.ar   45  A45        -0.2040
    965  C2        45.3580   64.6910   30.5640 C.ar   45  A45         0.2016
    966  N3        44.7770   63.5930   30.0850 N.ar   45  A45        -0.2048
    967  C4        43.6650   63.9030   29.4010 C.ar   45  A45         0.1692
    968  C5        43.1470   65.1680   29.1920 C.ar   45  A45         0.1518
    969  C6        43.8540   66.2500   29.7540 C.ar   45  A45         0.1919
    970  N6        43.4700   67.5240   29.6330 N.pl3  45  A45        -0.1054
    971  N7        41.9860   65.1040   28.4390 N.ar   45  A45        -0.2193
    972  C8        41.8300   63.8210   28.2100 C.ar   45  A45         0.1816
    973  N9        42.8010   63.0350   28.7680 N.ar   45  A45        -0.2693
    974  OP1       37.5380   61.4050   25.7910 O.2    45  A45        -0.5172
    975  OP2       38.2540   63.7960   26.4200 O.co2  45  A45        -0.4373
    976  P         39.3780   59.0340   30.9400 P.3    46  A46         0.2141
    977  C5'       41.3040   58.7090   32.6650 C.3    46  A46         0.1812
    978  O5'       40.1770   59.4730   32.2550 O.3    46  A46        -0.3114
    979  C4'       42.0560   59.3910   33.7780 C.3    46  A46         0.1773
    980  O4'       42.6900   60.5840   33.2590 O.3    46  A46        -0.3307
    981  C3'       41.2030   59.8460   34.9520 C.3    46  A46         0.1860
    982  O3'       41.1440   58.8870   36.0000 O.3    46  A46        -0.3112
    983  C2'       41.8440   61.1470   35.4140 C.3    46  A46         0.2309
    984  O2'       42.8140   60.8740   36.4130 O.3    46  A46        -0.2156
    985  C1'       42.5580   61.6560   34.1570 C.3    46  A46         0.2408
    986  N1        42.7230   66.5330   32.5220 N.ar   46  A46        -0.2040
    987  C2        43.5890   65.7910   33.2210 C.ar   46  A46         0.2016
    988  N3        43.4770   64.5230   33.6120 N.ar   46  A46        -0.2048
    989  C4        42.3060   64.0020   33.2080 C.ar   46  A46         0.1692
    990  C5        41.3150   64.6380   32.4850 C.ar   46  A46         0.1518
    991  C6        41.5550   65.9800   32.1310 C.ar   46  A46         0.1919
    992  N6        40.6890   66.7230   31.4340 N.pl3  46  A46        -0.1054
    993  N7        40.2510   63.7790   32.2540 N.ar   46  A46        -0.2193
    994  C8        40.6150   62.6570   32.8340 C.ar   46  A46         0.1816
    995  N9        41.8410   62.7280   33.4400 N.ar   46  A46        -0.2693
    996  OP1       39.0510   57.6090   31.1820 O.3    46  A46        -0.4373
    997  OP2       38.3030   60.0070   30.6380 O.co2  46  A46        -0.5172
    998  P         42.1580   57.6430   36.1790 P.3    47  C47         0.2141
    999  C5'       43.8010   57.3730   38.1100 C.3    47  C47         0.1812
   1000  O5'       43.4260   58.1760   36.9970 O.3    47  C47        -0.3114
   1001  C4'       45.2330   56.9000   38.0740 C.3    47  C47         0.1773
   1002  O4'       45.7570   57.0870   36.7350 O.3    47  C47        -0.3307
   1003  C3'       46.1760   57.6690   38.9930 C.3    47  C47         0.1860
   1004  O3'       46.4720   56.9680   40.1920 O.3    47  C47        -0.3112
   1005  C2'       47.4380   57.9630   38.1890 C.3    47  C47         0.2309
   1006  O2'       48.5510   57.1840   38.5710 O.3    47  C47        -0.2156
   1007  C1'       47.0560   57.6490   36.7510 C.3    47  C47         0.2420
   1008  N1        47.0120   58.9890   36.1390 N.ar   47  C47        -0.2535
   1009  C2        48.1650   59.7850   36.1970 C.ar   47  C47         0.3532
   1010  O2        49.2000   59.3470   36.7230 O.2    47  C47        -0.2443
   1011  N3        48.1200   61.0250   35.6590 N.ar   47  C47        -0.1739
   1012  C4        46.9930   61.4650   35.1040 C.ar   47  C47         0.1759
   1013  N4        46.9960   62.6940   34.5870 N.pl3  47  C47        -0.1070
   1014  C5        45.8120   60.6730   35.0490 C.ar   47  C47         0.0566
   1015  C6        45.8580   59.4530   35.5850 C.ar   47  C47         0.0850
   1016  OP1       42.5950   57.1520   34.8550 O.2    47  C47        -0.5172
   1017  OP2       41.5310   56.6770   37.1090 O.co2  47  C47        -0.4373
   1018  P         45.9300   57.9250   41.3510 P.3    48  C48         0.2141
   1019  C5'       48.3710   58.6290   41.9510 C.3    48  C48         0.1812
   1020  O5'       47.0890   59.0230   41.4850 O.3    48  C48        -0.3114
   1021  C4'       49.2910   59.8100   42.1280 C.3    48  C48         0.1773
   1022  O4'       49.6530   60.3490   40.8280 O.3    48  C48        -0.3307
   1023  C3'       48.7080   61.0010   42.8720 C.3    48  C48         0.1860
   1024  O3'       48.7400   60.8540   44.2800 O.3    48  C48        -0.3112
   1025  C2'       49.5820   62.1400   42.3690 C.3    48  C48         0.2309
   1026  O2'       50.8470   62.1220   43.0140 O.3    48  C48        -0.2156
   1027  C1'       49.7740   61.7520   40.9030 C.3    48  C48         0.2420
   1028  N1        48.7300   62.3520   40.0430 N.ar   48  C48        -0.2535
   1029  C2        48.9000   63.6610   39.5850 C.ar   48  C48         0.3532
   1030  O2        49.9220   64.2890   39.8970 O.2    48  C48        -0.2443
   1031  N3        47.9300   64.1990   38.8080 N.ar   48  C48        -0.1739
   1032  C4        46.8440   63.4900   38.4950 C.ar   48  C48         0.1759
   1033  N4        45.9190   64.0670   37.7220 N.pl3  48  C48        -0.1070
   1034  C5        46.6590   62.1560   38.9600 C.ar   48  C48         0.0566
   1035  C6        47.6160   61.6310   39.7280 C.ar   48  C48         0.0850
   1036  OP1       45.8900   57.2370   42.6620 O.3    48  C48        -0.4373
   1037  OP2       44.7260   58.5850   40.7970 O.co2  48  C48        -0.5172
   1038  P         47.6830   61.6370   45.1910 P.3    49  A49         0.2141
   1039  C5'       49.2710   63.6880   45.5360 C.3    49  A49         0.1812
   1040  O5'       48.0600   63.1800   44.9970 O.3    49  A49        -0.3114
   1041  C4'       49.3410   65.1880   45.4130 C.3    49  A49         0.1773
   1042  O4'       49.4670   65.5610   44.0160 O.3    49  A49        -0.3307
   1043  C3'       48.1130   65.9490   45.8870 C.3    49  A49         0.1860
   1044  O3'       48.0690   66.1140   47.2950 O.3    49  A49        -0.3112
   1045  C2'       48.2320   67.2590   45.1190 C.3    49  A49         0.2309
   1046  O2'       49.2030   68.1060   45.7150 O.3    49  A49        -0.2156
   1047  C1'       48.7780   66.7690   43.7770 C.3    49  A49         0.2408
   1048  N1        45.5360   68.7670   40.2890 N.ar   49  A49        -0.2040
   1049  C2        46.4850   69.3230   41.0510 C.ar   49  A49         0.2016
   1050  N3        47.2940   68.7450   41.9370 N.ar   49  A49        -0.2048
   1051  C4        47.0560   67.4270   42.0120 C.ar   49  A49         0.1692
   1052  C5        46.1160   66.7120   41.2950 C.ar   49  A49         0.1518
   1053  C6        45.3200   67.4390   40.3880 C.ar   49  A49         0.1919
   1054  N6        44.3730   66.8810   39.6280 N.pl3  49  A49        -0.1054
   1055  N7        46.1560   65.3710   41.6360 N.ar   49  A49        -0.2193
   1056  C8        47.1060   65.3040   42.5390 C.ar   49  A49         0.1816
   1057  N9        47.6930   66.5070   42.8120 N.ar   49  A49        -0.2693
   1058  OP1       47.9900   61.3730   46.6150 O.3    49  A49        -0.4373
   1059  OP2       46.3260   61.3840   44.6560 O.co2  49  A49        -0.5172
   1060  P         46.7000   65.9020   48.0980 P.3    50  G50         0.2141
   1061  C5'       46.3240   68.4600   47.8280 C.3    50  G50         0.1812
   1062  O5'       45.8090   67.1500   47.6430 O.3    50  G50        -0.3114
   1063  C4'       45.4850   69.4960   47.1250 C.3    50  G50         0.1773
   1064  O4'       45.6870   69.4180   45.6890 O.3    50  G50        -0.3307
   1065  C3'       43.9800   69.3500   47.2740 C.3    50  G50         0.1860
   1066  O3'       43.4850   69.7760   48.5300 O.3    50  G50        -0.3112
   1067  C2'       43.4780   70.1770   46.0990 C.3    50  G50         0.2309
   1068  O2'       43.6270   71.5630   46.3650 O.3    50  G50        -0.2156
   1069  C1'       44.4910   69.7780   45.0250 C.3    50  G50         0.2408
   1070  N1        41.6600   68.3120   41.0680 N.ar   50  G50        -0.1709
   1071  C2        41.9370   69.5760   41.5330 C.ar   50  G50         0.2606
   1072  N2        41.3880   70.5950   40.8630 N.pl3  50  G50        -0.0859
   1073  N3        42.7010   69.8300   42.5850 N.ar   50  G50        -0.1918
   1074  C4        43.1750   68.6930   43.1440 C.ar   50  G50         0.1723
   1075  C5        42.9590   67.3900   42.7590 C.ar   50  G50         0.1748
   1076  C6        42.1410   67.1330   41.6340 C.ar   50  G50         0.3023
   1077  O6        41.8360   66.0390   41.1380 O.2    50  G50        -0.2633
   1078  N7        43.6290   66.5140   43.6030 N.ar   50  G50        -0.2173
   1079  C8        44.2240   67.2910   44.4660 C.ar   50  G50         0.1817
   1080  N9        43.9970   68.6290   44.2440 N.ar   50  G50        -0.2693
   1081  OP1       46.9540   66.1460   49.5360 O.3    50  G50        -0.4373
   1082  OP2       46.0590   64.6430   47.6560 O.co2  50  G50        -0.5172
   1083  P         42.5010   68.7990   49.3310 P.3    51  A51         0.2141
   1084  C5'       40.2740   67.6280   48.5750 C.3    51  A51         0.1812
   1085  O5'       41.4350   68.3630   48.2190 O.3    51  A51        -0.3114
   1086  C4'       39.0230   68.3690   48.1730 C.3    51  A51         0.1773
   1087  O4'       38.8310   69.5070   49.0500 O.3    51  A51        -0.3307
   1088  C3'       39.0340   68.9650   46.7730 C.3    51  A51         0.1860
   1089  O3'       38.6690   68.0230   45.7790 O.3    51  A51        -0.3112
   1090  C2'       38.0650   70.1360   46.8840 C.3    51  A51         0.2309
   1091  O2'       36.7240   69.6920   46.7400 O.3    51  A51        -0.2156
   1092  C1'       38.2750   70.5870   48.3310 C.3    51  A51         0.2408
   1093  N1        38.9380   75.6340   47.4950 N.ar   51  A51        -0.2040
   1094  C2        37.9080   74.8150   47.2530 C.ar   51  A51         0.2016
   1095  N3        37.8000   73.5100   47.4950 N.ar   51  A51        -0.2048
   1096  C4        38.9230   73.0370   48.0570 C.ar   51  A51         0.1692
   1097  C5        40.0640   73.7530   48.3650 C.ar   51  A51         0.1518
   1098  C6        40.0540   75.1280   48.0610 C.ar   51  A51         0.1919
   1099  N6        41.0870   75.9400   48.3070 N.pl3  51  A51        -0.1054
   1100  N7        41.0210   72.9320   48.9370 N.ar   51  A51        -0.2193
   1101  C8        40.4480   71.7530   48.9610 C.ar   51  A51         0.1816
   1102  N9        39.1820   71.7440   48.4430 N.ar   51  A51        -0.2693
   1103  OP1       41.7120   69.5950   50.2970 O.3    51  A51        -0.4373
   1104  OP2       43.2590   67.6090   49.7760 O.co2  51  A51        -0.5172
   1105  P         39.2420   68.1500   44.2930 P.3    52  A52         0.2141
   1106  C5'       38.1910   69.4520   42.2750 C.3    52  A52         0.1812
   1107  O5'       37.9880   68.6680   43.4420 O.3    52  A52        -0.3114
   1108  C4'       37.5610   70.8140   42.4240 C.3    52  A52         0.1773
   1109  O4'       37.7830   71.2930   43.7750 O.3    52  A52        -0.3307
   1110  C3'       38.1130   71.9180   41.5320 C.3    52  A52         0.1860
   1111  O3'       37.5440   71.9210   40.2310 O.3    52  A52        -0.3112
   1112  C2'       37.7940   73.1770   42.3280 C.3    52  A52         0.2309
   1113  O2'       36.4380   73.5540   42.1440 O.3    52  A52        -0.2156
   1114  C1'       37.9620   72.6920   43.7680 C.3    52  A52         0.2408
   1115  N1        41.4310   76.3670   44.8120 N.ar   52  A52        -0.2040
   1116  C2        40.2130   76.4150   44.2610 C.ar   52  A52         0.2016
   1117  N3        39.3630   75.4190   44.0170 N.ar   52  A52        -0.2048
   1118  C4        39.8800   74.2440   44.4090 C.ar   52  A52         0.1692
   1119  C5        41.1150   74.0340   44.9900 C.ar   52  A52         0.1518
   1120  C6        41.9230   75.1710   45.1950 C.ar   52  A52         0.1919
   1121  N6        43.1400   75.1210   45.7460 N.pl3  52  A52        -0.1054
   1122  N7        41.3050   72.6900   45.2610 N.ar   52  A52        -0.2193
   1123  C8        40.1980   72.1220   44.8430 C.ar   52  A52         0.1816
   1124  N9        39.2950   73.0030   44.3170 N.ar   52  A52        -0.2693
   1125  OP1       39.4980   66.7870   43.7750 O.2    52  A52        -0.5172
   1126  OP2       40.3090   69.1770   44.2770 O.co2  52  A52        -0.4373
   1127  P         38.3870   72.2950   38.9170 P.3    53  A53         0.2141
   1128  C5'       37.9190   74.8080   38.2970 C.3    53  A53         0.1812
   1129  O5'       38.0840   73.8220   39.3080 O.3    53  A53        -0.3114
   1130  C4'       38.7020   76.0610   38.6040 C.3    53  A53         0.1773
   1131  O4'       38.9420   76.1320   40.0340 O.3    53  A53        -0.3307
   1132  C3'       40.0960   76.1490   37.9980 C.3    53  A53         0.1860
   1133  O3'       40.1010   76.5840   36.6500 O.3    53  A53        -0.3112
   1134  C2'       40.7970   77.1110   38.9450 C.3    53  A53         0.2309
   1135  O2'       40.3610   78.4440   38.7240 O.3    53  A53        -0.2156
   1136  C1'       40.2360   76.6370   40.2830 C.3    53  A53         0.2408
   1137  N1        44.4220   75.2670   42.9790 N.ar   53  A53        -0.2040
   1138  C2        43.9260   76.4660   42.6540 C.ar   53  A53         0.2016
   1139  N3        42.8320   76.7570   41.9510 N.ar   53  A53        -0.2048
   1140  C4        42.2080   75.6350   41.5570 C.ar   53  A53         0.1692
   1141  C5        42.5960   74.3350   41.8140 C.ar   53  A53         0.1518
   1142  C6        43.7710   74.1580   42.5680 C.ar   53  A53         0.1919
   1143  N6        44.2620   72.9570   42.8890 N.pl3  53  A53        -0.1054
   1144  N7        41.7070   73.4340   41.2500 N.ar   53  A53        -0.2193
   1145  C8        40.8130   74.1980   40.6710 C.ar   53  A53         0.1816
   1146  N9        41.0510   75.5350   40.8220 N.ar   53  A53        -0.2693
   1147  OP1       37.2220   71.7620   38.1660 O.2    53  A53        -0.5172
   1148  OP2       39.4780   71.5730   39.6160 O.co2  53  A53        -0.4373
   1149  P         40.5420   75.5750   35.4890 P.3    54  U54         0.2141
   1150  C5'       43.0660   76.2840   35.7290 C.3    54  U54         0.1812
   1151  O5'       42.0850   75.2580   35.7800 O.3    54  U54        -0.3114
   1152  C4'       44.1670   76.0360   36.7300 C.3    54  U54         0.1773
   1153  O4'       43.5990   75.4070   37.9080 O.3    54  U54        -0.3307
   1154  C3'       45.2700   75.0760   36.3060 C.3    54  U54         0.1860
   1155  O3'       46.2650   75.6700   35.4880 O.3    54  U54        -0.3112
   1156  C2'       45.8080   74.5990   37.6480 C.3    54  U54         0.2309
   1157  O2'       46.6200   75.5980   38.2460 O.3    54  U54        -0.2156
   1158  C1'       44.5190   74.4860   38.4550 C.3    54  U54         0.2420
   1159  N1        43.9460   73.1160   38.3900 N.ar   54  U54        -0.2534
   1160  C2        44.6400   72.0770   38.9750 C.ar   54  U54         0.3546
   1161  O2        45.7040   72.2240   39.5490 O.2    54  U54        -0.2443
   1162  N3        44.0410   70.8480   38.8660 N.ar   54  U54        -0.1530
   1163  C4        42.8420   70.5620   38.2410 C.ar   54  U54         0.2846
   1164  O4        42.4280   69.4070   38.2250 O.2    54  U54        -0.2650
   1165  C5        42.1780   71.6970   37.6540 C.ar   54  U54         0.0814
   1166  C6        42.7440   72.9060   37.7470 C.ar   54  U54         0.0870
   1167  OP1       40.5580   76.3160   34.2080 O.2    54  U54        -0.5172
   1168  OP2       39.7510   74.3310   35.6290 O.co2  54  U54        -0.4373
   1169  P         46.9450   74.8470   34.2910 P.3    55  G55         0.2141
   1170  C5'       48.7960   74.7560   36.1450 C.3    55  G55         0.1812
   1171  O5'       47.7630   74.0830   35.4420 O.3    55  G55        -0.3114
   1172  C4'       49.5070   73.8450   37.1140 C.3    55  G55         0.1773
   1173  O4'       48.5490   73.1550   37.9600 O.3    55  G55        -0.3307
   1174  C3'       50.3090   72.7100   36.5000 C.3    55  G55         0.1860
   1175  O3'       51.5540   73.1260   35.9710 O.3    55  G55        -0.3112
   1176  C2'       50.4360   71.7420   37.6680 C.3    55  G55         0.2309
   1177  O2'       51.4150   72.1900   38.5940 O.3    55  G55        -0.2156
   1178  C1'       49.0600   71.8860   38.3170 C.3    55  G55         0.2408
   1179  N1        48.0400   66.9170   38.4440 N.ar   55  G55        -0.1709
   1180  C2        49.0570   67.6230   39.0420 C.ar   55  G55         0.2606
   1181  N2        49.9270   66.9160   39.7760 N.pl3  55  G55        -0.0859
   1182  N3        49.2130   68.9350   38.9300 N.ar   55  G55        -0.1918
   1183  C4        48.2510   69.4910   38.1570 C.ar   55  G55         0.1723
   1184  C5        47.1990   68.8770   37.5180 C.ar   55  G55         0.1748
   1185  C6        47.0440   67.4760   37.6460 C.ar   55  G55         0.3023
   1186  O6        46.1690   66.7540   37.1500 O.2    55  G55        -0.2633
   1187  N7        46.4380   69.8090   36.8220 N.ar   55  G55        -0.2173
   1188  C8        47.0350   70.9480   37.0500 C.ar   55  G55         0.1817
   1189  N9        48.1410   70.8290   37.8560 N.ar   55  G55        -0.2693
   1190  OP1       47.6520   76.1160   33.9800 O.2    55  G55        -0.5172
   1191  OP2       45.5460   74.4400   34.0060 O.co2  55  G55        -0.4373
   1192  P         52.1750   72.3020   34.7510 P.3    56  G56         0.2141
   1193  C5'       53.6410   70.9870   36.4870 C.3    56  G56         0.1812
   1194  O5'       52.6850   70.9480   35.4360 O.3    56  G56        -0.3114
   1195  C4'       53.9860   69.6010   36.9690 C.3    56  G56         0.1773
   1196  O4'       52.8420   69.0140   37.6420 O.3    56  G56        -0.3307
   1197  C3'       54.3390   68.5970   35.8830 C.3    56  G56         0.1860
   1198  O3'       55.6830   68.7060   35.4500 O.3    56  G56        -0.3112
   1199  C2'       54.0040   67.2620   36.5360 C.3    56  G56         0.2309
   1200  O2'       55.0380   66.8600   37.4230 O.3    56  G56        -0.2156
   1201  C1'       52.7720   67.6310   37.3630 C.3    56  G56         0.2408
   1202  N1        49.3130   64.1760   35.8740 N.ar   56  G56        -0.1709
   1203  C2        50.4470   63.9990   36.6320 C.ar   56  G56         0.2606
   1204  N2        50.6950   62.7480   37.0460 N.pl3  56  G56        -0.0859
   1205  N3        51.2810   64.9770   36.9620 N.ar   56  G56        -0.1918
   1206  C4        50.8780   66.1700   36.4620 C.ar   56  G56         0.1723
   1207  C5        49.7670   66.4480   35.6970 C.ar   56  G56         0.1748
   1208  C6        48.8870   65.3970   35.3520 C.ar   56  G56         0.3023
   1209  O6        47.8500   65.4630   34.6800 O.2    56  G56        -0.2633
   1210  N7        49.7040   67.7980   35.3810 N.ar   56  G56        -0.2173
   1211  C8        50.7630   68.3040   35.9490 C.ar   56  G56         0.1817
   1212  N9        51.5210   67.3760   36.6240 N.ar   56  G56        -0.2693
   1213  OP1       53.4170   72.9720   34.3020 O.3    56  G56        -0.4373
   1214  OP2       51.0940   71.9990   33.7870 O.co2  56  G56        -0.5172
   1215  P         56.0510   68.3890   33.9270 P.3    57  U57         0.2141
   1216  C5'       55.1030   66.3860   32.5440 C.3    57  U57         0.1812
   1217  O5'       54.8600   67.4220   33.4820 O.3    57  U57        -0.3114
   1218  C4'       55.0490   65.0360   33.2110 C.3    57  U57         0.1773
   1219  O4'       53.8940   64.9680   34.0850 O.3    57  U57        -0.3307
   1220  C3'       54.8800   63.8500   32.2780 C.3    57  U57         0.1860
   1221  O3'       56.0950   63.4470   31.6700 O.3    57  U57        -0.3112
   1222  C2'       54.2620   62.8030   33.1970 C.3    57  U57         0.2309
   1223  O2'       55.2420   62.2340   34.0510 O.3    57  U57        -0.2156
   1224  C1'       53.3400   63.6720   34.0510 C.3    57  U57         0.2420
   1225  N1        51.9780   63.7890   33.4740 N.ar   57  U57        -0.2534
   1226  C2        51.1700   62.6740   33.4150 C.ar   57  U57         0.3546
   1227  O2        51.5160   61.5790   33.8220 O.2    57  U57        -0.2443
   1228  N3        49.9340   62.8890   32.8580 N.ar   57  U57        -0.1530
   1229  C4        49.4390   64.0840   32.3680 C.ar   57  U57         0.2846
   1230  O4        48.3070   64.1260   31.8990 O.2    57  U57        -0.2650
   1231  C5        50.3430   65.2020   32.4640 C.ar   57  U57         0.0814
   1232  C6        51.5530   65.0140   33.0010 C.ar   57  U57         0.0870
   1233  OP1       57.2570   67.5320   33.8800 O.3    57  U57        -0.4373
   1234  OP2       55.9790   69.6430   33.1430 O.co2  57  U57        -0.5172
   1235  P         56.2260   63.4660   30.0730 P.3    58  G58         0.2141
   1236  C5'       55.1250   61.1220   30.2130 C.3    58  G58         0.1812
   1237  O5'       55.1150   62.4090   29.6180 O.3    58  G58        -0.3114
   1238  C4'       53.8200   60.4000   30.0040 C.3    58  G58         0.1773
   1239  O4'       52.7460   61.0830   30.7000 O.3    58  G58        -0.3307
   1240  C3'       53.3300   60.3220   28.5680 C.3    58  G58         0.1860
   1241  O3'       53.9980   59.3270   27.8140 O.3    58  G58        -0.3112
   1242  C2'       51.8460   60.0470   28.7610 C.3    58  G58         0.2309
   1243  O2'       51.6340   58.6860   29.1080 O.3    58  G58        -0.2156
   1244  C1'       51.5400   60.9120   29.9850 C.3    58  G58         0.2408
   1245  N1        47.6410   63.5010   27.9730 N.ar   58  G58        -0.1709
   1246  C2        47.7710   62.1520   28.1970 C.ar   58  G58         0.2606
   1247  N2        46.7290   61.3870   27.8380 N.pl3  58  G58        -0.0859
   1248  N3        48.8460   61.5900   28.7330 N.ar   58  G58        -0.1918
   1249  C4        49.7980   62.5050   29.0320 C.ar   58  G58         0.1723
   1250  C5        49.7640   63.8670   28.8460 C.ar   58  G58         0.1748
   1251  C6        48.6100   64.4540   28.2710 C.ar   58  G58         0.3023
   1252  O6        48.3930   65.6490   28.0260 O.2    58  G58        -0.2633
   1253  N7        50.9460   64.4500   29.2860 N.ar   58  G58        -0.2173
   1254  C8        51.6610   63.4490   29.7220 C.ar   58  G58         0.1817
   1255  N9        51.0230   62.2380   29.6000 N.ar   58  G58        -0.2693
   1256  OP1       57.5070   62.8320   29.6860 O.3    58  G58        -0.4373
   1257  OP2       55.8700   64.8090   29.5620 O.co2  58  G58        -0.5172
   1258  P         54.6180   59.6670   26.3800 P.3    59  C59         0.2141
   1259  C5'       52.6290   58.1900   25.5570 C.3    59  C59         0.1812
   1260  O5'       53.3930   59.3740   25.3940 O.3    59  C59        -0.3114
   1261  C4'       51.1920   58.4040   25.1520 C.3    59  C59         0.1773
   1262  O4'       50.5530   59.3360   26.0630 O.3    59  C59        -0.3307
   1263  C3'       50.9770   59.0390   23.7890 C.3    59  C59         0.1860
   1264  O3'       51.1110   58.1230   22.7190 O.3    59  C59        -0.3112
   1265  C2'       49.5780   59.6200   23.9210 C.3    59  C59         0.2309
   1266  O2'       48.6060   58.5890   23.8330 O.3    59  C59        -0.2156
   1267  C1'       49.6090   60.1210   25.3630 C.3    59  C59         0.2420
   1268  N1        49.9940   61.5520   25.4790 N.ar   59  C59        -0.2535
   1269  C2        49.0450   62.5420   25.2110 C.ar   59  C59         0.3532
   1270  O2        47.9040   62.2010   24.8830 O.2    59  C59        -0.2443
   1271  N3        49.4040   63.8450   25.3200 N.ar   59  C59        -0.1739
   1272  C4        50.6470   64.1660   25.6790 C.ar   59  C59         0.1759
   1273  N4        50.9570   65.4630   25.7750 N.pl3  59  C59        -0.1070
   1274  C5        51.6300   63.1690   25.9530 C.ar   59  C59         0.0566
   1275  C6        51.2650   61.8880   25.8420 C.ar   59  C59         0.0850
   1276  OP1       55.6200   58.6310   26.0420 O.2    59  C59        -0.5172
   1277  OP2       54.9750   61.1030   26.3100 O.co2  59  C59        -0.4373
   1278  P         51.6590   58.6590   21.3190 P.3    60  C60         0.2141
   1279  C5'       49.2130   58.7640   20.3630 C.3    60  C60         0.1812
   1280  O5'       50.4150   59.4460   20.6900 O.3    60  C60        -0.3114
   1281  C4'       48.2060   59.6980   19.7370 C.3    60  C60         0.1773
   1282  O4'       47.8380   60.7290   20.6880 O.3    60  C60        -0.3307
   1283  C3'       48.6820   60.4600   18.5100 C.3    60  C60         0.1860
   1284  O3'       48.5360   59.7040   17.3210 O.3    60  C60        -0.3112
   1285  C2'       47.8170   61.7130   18.5220 C.3    60  C60         0.2309
   1286  O2'       46.5490   61.4470   17.9390 O.3    60  C60        -0.2156
   1287  C1'       47.6250   61.9530   20.0200 C.3    60  C60         0.2420
   1288  N1        48.5460   62.9560   20.6150 N.ar   60  C60        -0.2535
   1289  C2        48.2230   64.3120   20.5510 C.ar   60  C60         0.3532
   1290  O2        47.1750   64.6450   19.9860 O.2    60  C60        -0.2443
   1291  N3        49.0670   65.2180   21.1050 N.ar   60  C60        -0.1739
   1292  C4        50.1850   64.8060   21.7040 C.ar   60  C60         0.1759
   1293  N4        50.9910   65.7290   22.2380 N.pl3  60  C60        -0.1070
   1294  C5        50.5290   63.4240   21.7810 C.ar   60  C60         0.0566
   1295  C6        49.6890   62.5420   21.2310 C.ar   60  C60         0.0850
   1296  OP1       51.8440   57.4910   20.4300 O.2    60  C60        -0.5172
   1297  OP2       52.7660   59.6140   21.5550 O.co2  60  C60        -0.4373
   1298  P         49.6050   59.7930   16.1360 P.3    61  A61         0.2141
   1299  C5'       48.4760   57.5440   15.4910 C.3    61  A61         0.1812
   1300  O5'       48.9910   58.7910   15.0510 O.3    61  A61        -0.3114
   1301  C4'       47.7550   56.8130   14.3880 C.3    61  A61         0.1773
   1302  O4'       48.5400   56.8740   13.1720 O.3    61  A61        -0.3307
   1303  C3'       47.5410   55.3270   14.6240 C.3    61  A61         0.1860
   1304  O3'       46.4040   55.0540   15.4240 O.3    61  A61        -0.3112
   1305  C2'       47.4400   54.7600   13.2150 C.3    61  A61         0.2309
   1306  O2'       46.1260   54.9160   12.7020 O.3    61  A61        -0.2156
   1307  C1'       48.3790   55.6820   12.4350 C.3    61  A61         0.2408
   1308  N1        50.9790   52.0180    9.9620 N.ar   61  A61        -0.2040
   1309  C2        49.6830   52.3480    9.9780 C.ar   61  A61         0.2016
   1310  N3        49.0770   53.3210   10.6520 N.ar   61  A61        -0.2048
   1311  C4        49.9640   54.0100   11.3830 C.ar   61  A61         0.1692
   1312  C5        51.3250   53.7940   11.4700 C.ar   61  A61         0.1518
   1313  C6        51.8460   52.7320   10.7060 C.ar   61  A61         0.1919
   1314  N6        53.1410   52.4000   10.6860 N.pl3  61  A61        -0.1054
   1315  N7        51.9120   54.7090   12.3270 N.ar   61  A61        -0.2193
   1316  C8        50.9060   55.4480   12.7350 C.ar   61  A61         0.1816
   1317  N9        49.7020   55.0770   12.2030 N.ar   61  A61        -0.2693
   1318  OP1       50.9070   59.2680   16.6090 O.3    61  A61        -0.4373
   1319  OP2       49.5110   61.1270   15.5000 O.co2  61  A61        -0.5172
   1320  P         46.4900   53.8570   16.4780 P.3    62  A62         0.2141
   1321  C5'       45.1710   52.3020   14.8010 C.3    62  A62         0.1812
   1322  O5'       46.3370   52.5450   15.5740 O.3    62  A62        -0.3114
   1323  C4'       45.4230   51.2020   13.8030 C.3    62  A62         0.1773
   1324  O4'       46.4980   51.6000   12.9170 O.3    62  A62        -0.3307
   1325  C3'       45.8860   49.8830   14.3970 C.3    62  A62         0.1860
   1326  O3'       44.7950   49.0960   14.8440 O.3    62  A62        -0.3112
   1327  C2'       46.6890   49.2560   13.2620 C.3    62  A62         0.2309
   1328  O2'       45.8410   48.6080   12.3240 O.3    62  A62        -0.2156
   1329  C1'       47.3030   50.4870   12.5930 C.3    62  A62         0.2408
   1330  N1        52.3270   49.3820   12.0740 N.ar   62  A62        -0.2040
   1331  C2        51.2380   48.9180   11.4500 C.ar   62  A62         0.2016
   1332  N3        49.9610   49.2480   11.6320 N.ar   62  A62        -0.2048
   1333  C4        49.8410   50.1780   12.5900 C.ar   62  A62         0.1692
   1334  C5        50.8660   50.7510   13.3220 C.ar   62  A62         0.1518
   1335  C6        52.1760   50.3170   13.0350 C.ar   62  A62         0.1919
   1336  N6        53.2630   50.7810   13.6590 N.pl3  62  A62        -0.1054
   1337  N7        50.3640   51.6740   14.2240 N.ar   62  A62        -0.2193
   1338  C8        49.0670   51.6380   14.0220 C.ar   62  A62         0.1816
   1339  N9        48.6800   50.7560   13.0520 N.ar   62  A62        -0.2693
   1340  OP1       45.2830   53.8590   17.3360 O.3    62  A62        -0.4373
   1341  OP2       47.8410   53.8730   17.0830 O.co2  62  A62        -0.5172
   1342  P         45.0100   47.7290   15.6560 P.3    63  U63         0.2141
   1343  C5'       44.5940   48.9780   17.8950 C.3    63  U63         0.1812
   1344  O5'       45.5060   48.2500   17.0840 O.3    63  U63        -0.3114
   1345  C4'       44.6230   48.4380   19.2960 C.3    63  U63         0.1773
   1346  O4'       43.9010   47.1790   19.3270 O.3    63  U63        -0.3307
   1347  C3'       46.0310   48.1150   19.7670 C.3    63  U63         0.1860
   1348  O3'       46.6560   49.2220   20.4130 O.3    63  U63        -0.3112
   1349  C2'       45.8860   46.8570   20.6130 C.3    63  U63         0.2309
   1350  O2'       45.6390   47.1800   21.9660 O.3    63  U63        -0.2156
   1351  C1'       44.5980   46.2160   20.0880 C.3    63  U63         0.2420
   1352  N1        44.7380   44.8430   19.4770 N.ar   63  U63        -0.2534
   1353  C2        44.4300   43.7550   20.2850 C.ar   63  U63         0.3546
   1354  O2        44.0560   43.8310   21.4470 O.2    63  U63        -0.2443
   1355  N3        44.5760   42.5400   19.6800 N.ar   63  U63        -0.1530
   1356  C4        44.9850   42.3160   18.3850 C.ar   63  U63         0.2846
   1357  O4        45.0750   41.1730   17.9640 O.2    63  U63        -0.2650
   1358  C5        45.2830   43.4910   17.6160 C.ar   63  U63         0.0814
   1359  C6        45.1530   44.6950   18.1720 C.ar   63  U63         0.0870
   1360  OP1       46.1830   46.9990   15.1200 O.2    63  U63        -0.5172
   1361  OP2       43.6930   47.0620   15.8060 O.co2  63  U63        -0.4373
   1362  P         46.3220   49.8150   21.8720 P.3    64  U64         0.2141
   1363  C5'       48.7510   50.2330   22.2240 C.3    64  U64         0.1812
   1364  O5'       47.6980   49.3220   22.5180 O.3    64  U64        -0.3114
   1365  C4'       50.1100   49.5940   22.0750 C.3    64  U64         0.1773
   1366  O4'       50.5110   49.0020   23.3430 O.3    64  U64        -0.3307
   1367  C3'       50.2380   48.5000   21.0100 C.3    64  U64         0.1860
   1368  O3'       51.4480   48.6690   20.2730 O.3    64  U64        -0.3112
   1369  C2'       50.3350   47.2160   21.8340 C.3    64  U64         0.2309
   1370  O2'       51.0800   46.1800   21.2280 O.3    64  U64        -0.2156
   1371  C1'       51.0230   47.7060   23.1050 C.3    64  U64         0.2420
   1372  N1        50.9640   46.8150   24.3110 N.ar   64  U64        -0.2534
   1373  C2        52.0900   46.0730   24.5650 C.ar   64  U64         0.3546
   1374  O2        53.0820   46.1200   23.8600 O.2    64  U64        -0.2443
   1375  N3        52.0080   45.2730   25.6710 N.ar   64  U64        -0.1530
   1376  C4        50.9420   45.1390   26.5360 C.ar   64  U64         0.2846
   1377  O4        51.0260   44.3720   27.4920 O.2    64  U64        -0.2650
   1378  C5        49.8060   45.9540   26.1950 C.ar   64  U64         0.0814
   1379  C6        49.8520   46.7480   25.1190 C.ar   64  U64         0.0870
   1380  OP1       45.1010   49.2420   22.4670 O.3    64  U64        -0.4373
   1381  OP2       46.4680   51.2870   21.9230 O.co2  64  U64        -0.5172
   1382  P         51.5660   49.8690   19.2170 P.3    65  C65         0.2141
   1383  C5'       49.6040   49.1640   17.7090 C.3    65  C65         0.1812
   1384  O5'       51.0190   49.2310   17.8520 O.3    65  C65        -0.3114
   1385  C4'       49.1190   48.1120   16.7400 C.3    65  C65         0.1773
   1386  O4'       49.6420   48.4320   15.4250 O.3    65  C65        -0.3307
   1387  C3'       49.5400   46.6690   17.0300 C.3    65  C65         0.1860
   1388  O3'       48.4740   45.8390   17.4670 O.3    65  C65        -0.3112
   1389  C2'       50.0430   46.0960   15.7100 C.3    65  C65         0.2309
   1390  O2'       49.2150   45.0840   15.1690 O.3    65  C65        -0.2156
   1391  C1'       50.1130   47.2800   14.7590 C.3    65  C65         0.2420
   1392  N1        51.5670   47.2990   14.6330 N.ar   65  C65        -0.2535
   1393  C2        52.1280   46.4160   13.7110 C.ar   65  C65         0.3532
   1394  O2        51.3800   45.7290   13.0010 O.2    65  C65        -0.2443
   1395  N3        53.4730   46.3650   13.6010 N.ar   65  C65        -0.1739
   1396  C4        54.2350   47.1270   14.3870 C.ar   65  C65         0.1759
   1397  N4        55.5590   47.0350   14.2360 N.pl3  65  C65        -0.1070
   1398  C5        53.6760   48.0120   15.3570 C.ar   65  C65         0.0566
   1399  C6        52.3440   48.0580   15.4580 C.ar   65  C65         0.0850
   1400  OP1       52.9950   50.1570   18.9480 O.2    65  C65        -0.5172
   1401  OP2       50.6380   50.9480   19.6270 O.co2  65  C65        -0.4373
   1402  P         49.0110   44.7320   18.4990 P.3    66  C66         0.2141
   1403  C5'       48.5760   42.6390   16.9470 C.3    66  C66         0.1812
   1404  O5'       49.4980   43.4640   17.6470 O.3    66  C66        -0.3114
   1405  C4'       49.2470   41.7510   15.9270 C.3    66  C66         0.1773
   1406  O4'       50.1320   42.5420   15.0920 O.3    66  C66        -0.3307
   1407  C3'       50.1430   40.6410   16.4590 C.3    66  C66         0.1860
   1408  O3'       49.4240   39.4990   16.8940 O.3    66  C66        -0.3112
   1409  C2'       51.0440   40.3560   15.2640 C.3    66  C66         0.2309
   1410  O2'       50.3700   39.5560   14.3040 O.3    66  C66        -0.2156
   1411  C1'       51.2240   41.7530   14.6710 C.3    66  C66         0.2420
   1412  N1        52.5140   42.4080   15.0320 N.ar   66  C66        -0.2535
   1413  C2        53.7000   41.8500   14.5470 C.ar   66  C66         0.3532
   1414  O2        53.6340   40.8280   13.8500 O.2    66  C66        -0.2443
   1415  N3        54.8800   42.4450   14.8600 N.ar   66  C66        -0.1739
   1416  C4        54.8960   43.5420   15.6210 C.ar   66  C66         0.1759
   1417  N4        56.0810   44.0890   15.9090 N.pl3  66  C66        -0.1070
   1418  C5        53.6960   44.1260   16.1230 C.ar   66  C66         0.0566
   1419  C6        52.5370   43.5360   15.8060 C.ar   66  C66         0.0850
   1420  OP1       47.9130   44.2340   19.3620 O.3    66  C66        -0.4373
   1421  OP2       50.2090   45.3470   19.1080 O.co2  66  C66        -0.5172
   1422  P         49.7940   38.7870   18.2810 P.3    67  U67         0.2141
   1423  C5'       51.4020   37.1380   16.9920 C.3    67  U67         0.1812
   1424  O5'       51.2220   38.1110   18.0120 O.3    67  U67        -0.3114
   1425  C4'       52.8570   36.9830   16.6260 C.3    67  U67         0.1773
   1426  O4'       53.3860   38.2610   16.1870 O.3    67  U67        -0.3307
   1427  C3'       53.7900   36.5490   17.7480 C.3    67  U67         0.1860
   1428  O3'       53.7950   35.1420   17.9310 O.3    67  U67        -0.3112
   1429  C2'       55.1410   37.1000   17.3050 C.3    67  U67         0.2309
   1430  O2'       55.7720   36.2120   16.3950 O.3    67  U67        -0.2156
   1431  C1'       54.7480   38.3680   16.5420 C.3    67  U67         0.2420
   1432  N1        54.9630   39.6580   17.2630 N.ar   67  U67        -0.2534
   1433  C2        56.1910   40.2860   17.1780 C.ar   67  U67         0.3546
   1434  O2        57.1300   39.8360   16.5480 O.2    67  U67        -0.2443
   1435  N3        56.2860   41.4700   17.8650 N.ar   67  U67        -0.1530
   1436  C4        55.2910   42.0760   18.6110 C.ar   67  U67         0.2846
   1437  O4        55.5190   43.1410   19.1750 O.2    67  U67        -0.2650
   1438  C5        54.0400   41.3650   18.6500 C.ar   67  U67         0.0814
   1439  C6        53.9260   40.2090   17.9870 C.ar   67  U67         0.0870
   1440  OP1       48.8790   37.6440   18.5060 O.2    67  U67        -0.5172
   1441  OP2       49.9350   39.8340   19.3170 O.co2  67  U67        -0.4373
   1442  P         54.0690   34.4620   19.3580 P.3    68  G68         0.2141
   1443  C5'       56.5040   33.5330   18.9080 C.3    68  G68         0.1812
   1444  O5'       55.6610   34.4940   19.5280 O.3    68  G68        -0.3114
   1445  C4'       57.9550   33.8660   19.1450 C.3    68  G68         0.1773
   1446  O4'       58.2360   35.1650   18.5650 O.3    68  G68        -0.3307
   1447  C3'       58.3600   34.0100   20.6050 C.3    68  G68         0.1860
   1448  O3'       58.6720   32.7780   21.2390 O.3    68  G68        -0.3112
   1449  C2'       59.5150   35.0040   20.5620 C.3    68  G68         0.2309
   1450  O2'       60.7320   34.3660   20.2050 O.3    68  G68        -0.2156
   1451  C1'       59.0890   35.9100   19.4070 C.3    68  G68         0.2408
   1452  N1        59.2620   40.8900   20.4630 N.ar   68  G68        -0.1709
   1453  C2        60.2590   40.0600   20.0060 C.ar   68  G68         0.2606
   1454  N2        61.4580   40.6220   19.8000 N.pl3  68  G68        -0.0859
   1455  N3        60.0940   38.7670   19.7660 N.ar   68  G68        -0.1918
   1456  C4        58.8270   38.3680   20.0250 C.ar   68  G68         0.1723
   1457  C5        57.7660   39.1150   20.4830 C.ar   68  G68         0.1748
   1458  C6        57.9550   40.4930   20.7350 C.ar   68  G68         0.3023
   1459  O6        57.1270   41.3190   21.1460 O.2    68  G68        -0.2633
   1460  N7        56.6300   38.3280   20.6200 N.ar   68  G68        -0.2173
   1461  C8        57.0200   37.1400   20.2500 C.ar   68  G68         0.1817
   1462  N9        58.3420   37.0900   19.8780 N.ar   68  G68        -0.2693
   1463  OP1       53.7400   33.0220   19.2510 O.2    68  G68        -0.5172
   1464  OP2       53.4560   35.2900   20.4210 O.co2  68  G68        -0.4373
   1465  P         59.3900   31.5500   20.4970 P.3    69  C69         0.2141
   1466  C5'       60.3120   30.9190   22.8990 C.3    69  C69         0.1812
   1467  O5'       59.6430   30.5280   21.7030 O.3    69  C69        -0.3114
   1468  C4'       59.6720   30.2800   24.1070 C.3    69  C69         0.1773
   1469  O4'       58.8670   31.2750   24.7990 O.3    69  C69        -0.3307
   1470  C3'       58.7440   29.1150   23.7630 C.3    69  C69         0.1860
   1471  O3'       58.8710   28.0190   24.6670 O.3    69  C69        -0.3112
   1472  C2'       57.3510   29.7150   23.8950 C.3    69  C69         0.2309
   1473  O2'       56.3570   28.8020   24.3020 O.3    69  C69        -0.2156
   1474  C1'       57.5340   30.8210   24.9270 C.3    69  C69         0.2420
   1475  N1        56.5790   31.8780   24.5280 N.ar   69  C69        -0.2535
   1476  C2        55.4350   32.1320   25.2920 C.ar   69  C69         0.3532
   1477  O2        55.2470   31.4890   26.3310 O.2    69  C69        -0.2443
   1478  N3        54.5680   33.0880   24.8700 N.ar   69  C69        -0.1739
   1479  C4        54.8090   33.7560   23.7390 C.ar   69  C69         0.1759
   1480  N4        53.9330   34.6920   23.3600 N.pl3  69  C69        -0.1070
   1481  C5        55.9620   33.4990   22.9430 C.ar   69  C69         0.0566
   1482  C6        56.8040   32.5550   23.3670 C.ar   69  C69         0.0850
   1483  OP1       60.7520   31.9340   20.0640 O.3    69  C69        -0.4373
   1484  OP2       58.4430   30.9340   19.5420 O.co2  69  C69        -0.5172
   1485  P         58.2040   26.6440   24.1770 P.3    70  A70         0.2141
   1486  C5'       56.8400   26.8500   26.3860 C.3    70  A70         0.1812
   1487  O5'       56.8300   26.5600   24.9940 O.3    70  A70        -0.3114
   1488  C4'       55.4780   26.6970   27.0170 C.3    70  A70         0.1773
   1489  O4'       54.8540   28.0100   27.0910 O.3    70  A70        -0.3307
   1490  C3'       54.5140   25.7820   26.2590 C.3    70  A70         0.1860
   1491  O3'       54.1460   24.5950   26.9560 O.3    70  A70        -0.3112
   1492  C2'       53.2520   26.6070   26.0350 C.3    70  A70         0.2309
   1493  O2'       52.0940   26.0120   26.5750 O.3    70  A70        -0.2156
   1494  C1'       53.4920   27.9450   26.7180 C.3    70  A70         0.2408
   1495  N1        49.8340   31.0330   24.8690 N.ar   70  A70        -0.2040
   1496  C2        49.8370   30.1490   25.8730 C.ar   70  A70         0.2016
   1497  N3        50.8330   29.3790   26.3060 N.ar   70  A70        -0.2048
   1498  C4        51.9420   29.5870   25.5800 C.ar   70  A70         0.1692
   1499  C5        52.0920   30.4620   24.5210 C.ar   70  A70         0.1518
   1500  C6        50.9640   31.2200   24.1580 C.ar   70  A70         0.1919
   1501  N6        50.9640   32.1050   23.1560 N.pl3  70  A70        -0.1054
   1502  N7        53.3790   30.4060   24.0170 N.ar   70  A70        -0.2193
   1503  C8        53.9670   29.5100   24.7720 C.ar   70  A70         0.1816
   1504  N9        53.1700   28.9980   25.7540 N.ar   70  A70        -0.2693
   1505  OP1       59.0000   25.5020   24.6780 O.3    70  A70        -0.4373
   1506  OP2       57.8900   26.7680   22.7360 O.co2  70  A70        -0.5172
   1507  P         53.4310   23.5200   25.9960 P.3    71  G71         0.2141
   1508  C5'       51.5310   23.5670   27.7730 C.3    71  G71         0.1812
   1509  O5'       51.8850   23.5900   26.4000 O.3    71  G71        -0.3114
   1510  C4'       50.0940   23.9650   27.9880 C.3    71  G71         0.1773
   1511  O4'       49.9390   25.4060   27.9030 O.3    71  G71        -0.3307
   1512  C3'       49.1050   23.4370   26.9660 C.3    71  G71         0.1860
   1513  O3'       48.7720   22.0770   27.1730 O.3    71  G71        -0.3112
   1514  C2'       47.9320   24.3900   27.1360 C.3    71  G71         0.2309
   1515  O2'       47.1830   24.0610   28.2970 O.3    71  G71        -0.2156
   1516  C1'       48.6590   25.7130   27.3870 C.3    71  G71         0.2408
   1517  N1        46.3370   28.6700   23.9340 N.ar   71  G71        -0.1709
   1518  C2        45.8150   28.0610   25.0500 C.ar   71  G71         0.2606
   1519  N2        44.5100   28.2650   25.2800 N.pl3  71  G71        -0.0859
   1520  N3        46.5220   27.3070   25.8830 N.ar   71  G71        -0.1918
   1521  C4        47.8180   27.2130   25.4990 C.ar   71  G71         0.1723
   1522  C5        48.4290   27.7820   24.4020 C.ar   71  G71         0.1748
   1523  C6        47.6640   28.5830   23.5230 C.ar   71  G71         0.3023
   1524  O6        48.0360   29.1710   22.4970 O.2    71  G71        -0.2633
   1525  N7        49.7750   27.4460   24.3550 N.ar   71  G71        -0.2173
   1526  C8        49.9430   26.6920   25.4040 C.ar   71  G71         0.1817
   1527  N9        48.8050   26.5060   26.1500 N.ar   71  G71        -0.2693
   1528  OP1       53.8470   22.1500   26.3670 O.3    71  G71        -0.4373
   1529  OP2       53.5750   23.9850   24.5980 O.co2  71  G71        -0.5172
   1530  P         48.5120   21.1540   25.8990 P.3    72  C72         0.2141
   1531  C5'       46.0040   21.5960   26.4760 C.3    72  C72         0.1812
   1532  O5'       47.0200   21.5570   25.4860 O.3    72  C72        -0.3114
   1533  C4'       44.7520   22.2440   25.9440 C.3    72  C72         0.1773
   1534  O4'       44.9120   23.6870   25.9170 O.3    72  C72        -0.3307
   1535  C3'       44.4070   21.9070   24.5050 C.3    72  C72         0.1860
   1536  O3'       43.8160   20.6320   24.3410 O.3    72  C72        -0.3112
   1537  C2'       43.5100   23.0710   24.1130 C.3    72  C72         0.2309
   1538  O2'       42.2400   22.9550   24.7350 O.3    72  C72        -0.2156
   1539  C1'       44.2660   24.2180   24.7790 C.3    72  C72         0.2420
   1540  N1        45.3170   24.7670   23.8820 N.ar   72  C72        -0.2535
   1541  C2        44.9710   25.6300   22.8340 C.ar   72  C72         0.3532
   1542  O2        43.7820   25.9370   22.6680 O.2    72  C72        -0.2443
   1543  N3        45.9560   26.1100   22.0310 N.ar   72  C72        -0.1739
   1544  C4        47.2270   25.7550   22.2430 C.ar   72  C72         0.1759
   1545  N4        48.1680   26.2480   21.4330 N.pl3  72  C72        -0.1070
   1546  C5        47.5930   24.8740   23.3020 C.ar   72  C72         0.0566
   1547  C6        46.6170   24.4110   24.0860 C.ar   72  C72         0.0850
   1548  OP1       48.4030   19.7410   26.3280 O.3    72  C72        -0.4373
   1549  OP2       49.4570   21.5460   24.8280 O.co2  72  C72        -0.5172
   1550  P         44.3370   19.7550   23.1130 P.3    73  G73         0.2141
   1551  C5'       42.0750   20.3730   22.0100 C.3    73  G73         0.1812
   1552  O5'       43.4880   20.3370   21.8890 O.3    73  G73        -0.3114
   1553  C4'       41.4450   21.2510   20.9590 C.3    73  G73         0.1773
   1554  O4'       42.0000   22.5890   21.0340 O.3    73  G73        -0.3307
   1555  C3'       41.6800   20.8420   19.5140 C.3    73  G73         0.1860
   1556  O3'       40.8320   19.7880   19.0880 O.3    73  G73        -0.3112
   1557  C2'       41.4310   22.1480   18.7720 C.3    73  G73         0.2309
   1558  O2'       40.0380   22.3920   18.6540 O.3    73  G73        -0.2156
   1559  C1'       42.0100   23.1720   19.7490 C.3    73  G73         0.2408
   1560  N1        44.8860   26.0710   16.7230 N.ar   73  G73        -0.1709
   1561  C2        43.5170   25.9470   16.7780 C.ar   73  G73         0.2606
   1562  N2        42.8120   26.6910   15.9140 N.pl3  73  G73        -0.0859
   1563  N3        42.8800   25.1480   17.6210 N.ar   73  G73        -0.1918
   1564  C4        43.7400   24.4710   18.4200 C.ar   73  G73         0.1723
   1565  C5        45.1150   24.5260   18.4440 C.ar   73  G73         0.1748
   1566  C6        45.7830   25.3840   17.5370 C.ar   73  G73         0.3023
   1567  O6        47.0010   25.5660   17.4100 O.2    73  G73        -0.2633
   1568  N7        45.6250   23.6730   19.4160 N.ar   73  G73        -0.2173
   1569  C8        44.5650   23.1290   19.9510 C.ar   73  G73         0.1817
   1570  N9        43.3860   23.5680   19.3960 N.ar   73  G73        -0.2693
   1571  OP1       43.8490   18.3660   23.2650 O.3    73  G73        -0.4373
   1572  OP2       45.7760   20.0360   22.9040 O.co2  73  G73        -0.5172
   1573  P         41.4400   18.4020   18.5610 P.3    74  G74         0.2141
   1574  C5'       42.7780   19.4650   16.6540 C.3    74  G74         0.1812
   1575  O5'       41.6760   18.6470   17.0000 O.3    74  G74        -0.3114
   1576  C4'       42.5410   20.2610   15.4000 C.3    74  G74         0.1773
   1577  O4'       42.7720   21.6590   15.7080 O.3    74  G74        -0.3307
   1578  C3'       43.4870   19.9460   14.2510 C.3    74  G74         0.1860
   1579  O3'       43.0350   18.8900   13.4180 O.3    74  G74        -0.3112
   1580  C2'       43.6250   21.2880   13.5440 C.3    74  G74         0.2309
   1581  O2'       42.4850   21.5520   12.7410 O.3    74  G74        -0.2156
   1582  C1'       43.6080   22.2420   14.7380 C.3    74  G74         0.2408
   1583  N1        48.4190   24.0110   14.5070 N.ar   74  G74        -0.1709
   1584  C2        47.3910   24.1910   13.6110 C.ar   74  G74         0.2606
   1585  N2        47.6730   24.9260   12.5260 N.pl3  74  G74        -0.0859
   1586  N3        46.1720   23.6890   13.7660 N.ar   74  G74        -0.1918
   1587  C4        46.0640   22.9790   14.9130 C.ar   74  G74         0.1723
   1588  C5        47.0300   22.7410   15.8650 C.ar   74  G74         0.1748
   1589  C6        48.3240   23.2820   15.6880 C.ar   74  G74         0.3023
   1590  O6        49.3090   23.1770   16.4300 O.2    74  G74        -0.2633
   1591  N7        46.5290   21.9620   16.8960 N.ar   74  G74        -0.2173
   1592  C8        45.2920   21.7470   16.5570 C.ar   74  G74         0.1817
   1593  N9        44.9370   22.3340   15.3670 N.ar   74  G74        -0.2693
   1594  OP1       40.3900   17.3580   18.6000 O.2    74  G74        -0.5172
   1595  OP2       42.7520   18.1930   19.2150 O.co2  74  G74        -0.4373
   1596  P         43.7070   17.4360   13.5050 P.3    75  A75         0.2141
   1597  C5'       46.1640   16.6640   12.8410 C.3    75  A75         0.1812
   1598  O5'       45.2030   17.7000   13.0000 O.3    75  A75        -0.3114
   1599  C4'       47.1010   16.9970   11.7070 C.3    75  A75         0.1773
   1600  O4'       46.4840   16.6050   10.4570 O.3    75  A75        -0.3307
   1601  C3'       47.4160   18.4790   11.5560 C.3    75  A75         0.1860
   1602  O3'       48.5570   18.8670   12.3030 O.3    75  A75        -0.3112
   1603  C2'       47.5830   18.6740   10.0550 C.3    75  A75         0.2309
   1604  O2'       48.9140   18.3720    9.6630 O.3    75  A75        -0.2156
   1605  C1'       46.6460   17.6090    9.4810 C.3    75  A75         0.2408
   1606  N1        43.5680   20.6760    6.6110 N.ar   75  A75        -0.2040
   1607  C2        44.8880   20.4590    6.5630 C.ar   75  A75         0.2016
   1608  N3        45.6400   19.6620    7.3210 N.ar   75  A75        -0.2048
   1609  C4        44.8870   19.0240    8.2320 C.ar   75  A75         0.1692
   1610  C5        43.5190   19.1440    8.3990 C.ar   75  A75         0.1518
   1611  C6        42.8360   20.0200    7.5350 C.ar   75  A75         0.1919
   1612  N6        41.5160   20.2270    7.5960 N.pl3  75  A75        -0.1054
   1613  N7        43.0740   18.3430    9.4350 N.ar   75  A75        -0.2193
   1614  C8        44.1650   17.7610    9.8670 C.ar   75  A75         0.1816
   1615  N9        45.2960   18.1260    9.1930 N.ar   75  A75        -0.2693
   1616  OP1       43.1150   16.5750   12.4550 O.2    75  A75        -0.5172
   1617  OP2       43.7310   16.9950   14.9180 O.co2  75  A75        -0.4373
   1618  P         48.5910   20.2590   13.0930 P.3    76  A76         0.2141
   1619  C5'       50.1460   21.3180   11.2590 C.3    76  A76         0.1812
   1620  O5'       48.9090   21.3420   11.9580 O.3    76  A76        -0.3114
   1621  C4'       50.0490   22.0880    9.9670 C.3    76  A76         0.1773
   1622  O4'       48.9770   21.5290    9.1670 O.3    76  A76        -0.3307
   1623  C3'       49.7040   23.5640   10.1060 C.3    76  A76         0.1860
   1624  O3'       50.8520   24.3700   10.3170 O.3    76  A76        -0.3112
   1625  C2'       48.9790   23.8790    8.8030 C.3    76  A76         0.2309
   1626  O2'       49.9110   24.1430    7.7640 O.3    76  A76        -0.2156
   1627  C1'       48.2770   22.5550    8.4990 C.3    76  A76         0.2408
   1628  N1        43.3330   23.6250    7.4220 N.ar   76  A76        -0.2040
   1629  C2        44.4580   23.8100    6.7230 C.ar   76  A76         0.2016
   1630  N3        45.7120   23.5110    7.0580 N.ar   76  A76        -0.2048
   1631  C4        45.7610   22.9580    8.2800 C.ar   76  A76         0.1692
   1632  C5        44.6900   22.7060    9.1180 C.ar   76  A76         0.1518
   1633  C6        43.4120   23.0660    8.6470 C.ar   76  A76         0.1919
   1634  N6        42.2880   22.8840    9.3490 N.pl3  76  A76        -0.1054
   1635  N7        45.1200   22.1230   10.2990 N.ar   76  A76        -0.2193
   1636  C8        46.4200   22.0360   10.1520 C.ar   76  A76         0.1816
   1637  N9        46.8770   22.5250    8.9610 N.ar   76  A76        -0.2693
   1638  OP1       49.7880   20.2910   13.9640 O.3    76  A76        -0.4373
   1639  OP2       47.2460   20.5060   13.6570 O.co2  76  A76        -0.5172
   1640  P         50.7330   25.8680   10.8700 P.3    77  A77         0.2141
   1641  C5'       50.2000   27.1700    8.6490 C.3    77  A77         0.1812
   1642  O5'       49.7290   26.6050    9.8630 O.3    77  A77        -0.3114
   1643  C4'       49.0740   27.7920    7.8610 C.3    77  A77         0.1773
   1644  O4'       48.0530   26.7930    7.6090 O.3    77  A77        -0.3307
   1645  C3'       48.3320   28.9310    8.5440 C.3    77  A77         0.1860
   1646  O3'       48.9760   30.1810    8.3790 O.3    77  A77        -0.3112
   1647  C2'       46.9610   28.8840    7.8830 C.3    77  A77         0.2309
   1648  O2'       46.9990   29.5190    6.6140 O.3    77  A77        -0.2156
   1649  C1'       46.7720   27.3820    7.6720 C.3    77  A77         0.2408
   1650  N1        42.2020   25.8000    9.4830 N.ar   77  A77        -0.2040
   1651  C2        42.5570   26.3720    8.3260 C.ar   77  A77         0.2016
   1652  N3        43.7640   26.7580    7.9160 N.ar   77  A77        -0.2048
   1653  C4        44.6880   26.5020    8.8530 C.ar   77  A77         0.1692
   1654  C5        44.4780   25.9200   10.0890 C.ar   77  A77         0.1518
   1655  C6        43.1530   25.5560   10.4050 C.ar   77  A77         0.1919
   1656  N6        42.8000   24.9840   11.5610 N.pl3  77  A77        -0.1054
   1657  N7        45.6680   25.8160   10.7890 N.ar   77  A77        -0.2193
   1658  C8        46.5600   26.3280    9.9750 C.ar   77  A77         0.1816
   1659  N9        46.0370   26.7620    8.7900 N.ar   77  A77        -0.2693
   1660  OP1       52.0280   26.5510   10.6520 O.2    77  A77        -0.5172
   1661  OP2       50.1340   25.8350   12.2220 O.co2  77  A77        -0.4373
   1662  P         49.2500   31.1350    9.6320 P.3    78  C78         0.2141
   1663  C5'       46.7420   31.8980    9.8550 C.3    78  C78         0.1812
   1664  O5'       47.8490   31.1990   10.4070 O.3    78  C78        -0.3114
   1665  C4'       45.4310   31.4400   10.4480 C.3    78  C78         0.1773
   1666  O4'       45.4200   29.9910   10.5600 O.3    78  C78        -0.3307
   1667  C3'       45.1210   31.9120   11.8610 C.3    78  C78         0.1860
   1668  O3'       44.6260   33.2380   11.9210 O.3    78  C78        -0.3112
   1669  C2'       44.1120   30.8720   12.3290 C.3    78  C78         0.2309
   1670  O2'       42.8340   31.1210   11.7600 O.3    78  C78        -0.2156
   1671  C1'       44.6860   29.6030   11.7020 C.3    78  C78         0.2420
   1672  N1        45.6020   28.9070   12.6380 N.ar   78  C78        -0.2535
   1673  C2        45.0730   28.1530   13.6920 C.ar   78  C78         0.3532
   1674  O2        43.8450   28.0710   13.8200 O.2    78  C78        -0.2443
   1675  N3        45.9240   27.5310   14.5440 N.ar   78  C78        -0.1739
   1676  C4        47.2420   27.6450   14.3710 C.ar   78  C78         0.1759
   1677  N4        48.0430   27.0120   15.2340 N.pl3  78  C78        -0.1070
   1678  C5        47.7990   28.4110   13.3060 C.ar   78  C78         0.0566
   1679  C6        46.9500   29.0220   12.4730 C.ar   78  C78         0.0850
   1680  OP1       49.4580   32.5110    9.1250 O.2    78  C78        -0.5172
   1681  OP2       50.2620   30.4970   10.5050 O.co2  78  C78        -0.4373
   1682  P         44.8550   34.1140   13.2430 P.3    79  G79         0.2141
   1683  C5'       42.4870   33.3070   14.0150 C.3    79  G79         0.1812
   1684  O5'       43.8660   33.4580   14.3180 O.3    79  G79        -0.3114
   1685  C4'       41.7970   32.3640   14.9710 C.3    79  G79         0.1773
   1686  O4'       42.3940   31.0420   14.9020 O.3    79  G79        -0.3307
   1687  C3'       41.8970   32.7170   16.4450 C.3    79  G79         0.1860
   1688  O3'       41.0190   33.7590   16.8320 O.3    79  G79        -0.3112
   1689  C2'       41.5980   31.3810   17.1110 C.3    79  G79         0.2309
   1690  O2'       40.2080   31.0960   17.0620 O.3    79  G79        -0.2156
   1691  C1'       42.3150   30.4160   16.1670 C.3    79  G79         0.2408
   1692  N1        45.0650   27.7770   19.5440 N.ar   79  G79        -0.1709
   1693  C2        43.7010   27.8380   19.3740 C.ar   79  G79         0.2606
   1694  N2        42.9650   27.0980   20.2170 N.pl3  79  G79        -0.0859
   1695  N3        43.0990   28.5710   18.4460 N.ar   79  G79        -0.1918
   1696  C4        43.9890   29.2520   17.6880 C.ar   79  G79         0.1723
   1697  C5        45.3640   29.2590   17.7770 C.ar   79  G79         0.1748
   1698  C6        45.9930   28.4710   18.7720 C.ar   79  G79         0.3023
   1699  O6        47.2030   28.3450   19.0100 O.2    79  G79        -0.2633
   1700  N7        45.9120   30.0920   16.8100 N.ar   79  G79        -0.2173
   1701  C8        44.8760   30.5630   16.1680 C.ar   79  G79         0.1817
   1702  N9        43.6740   30.0930   16.6450 N.ar   79  G79        -0.2693
   1703  OP1       44.3030   35.4690   13.0130 O.2    79  G79        -0.5172
   1704  OP2       46.2540   33.9440   13.7020 O.co2  79  G79        -0.4373
   1705  P         41.5770   34.9320   17.7630 P.3    80  U80         0.2141
   1706  C5'       40.3370   33.7320   19.7350 C.3    80  U80         0.1812
   1707  O5'       41.5390   34.2940   19.2310 O.3    80  U80        -0.3114
   1708  C4'       40.6020   32.8240   20.9100 C.3    80  U80         0.1773
   1709  O4'       41.3870   31.6820   20.4790 O.3    80  U80        -0.3307
   1710  C3'       41.4210   33.4210   22.0460 C.3    80  U80         0.1860
   1711  O3'       40.6640   34.2400   22.9200 O.3    80  U80        -0.3112
   1712  C2'       41.9910   32.1800   22.7200 C.3    80  U80         0.2309
   1713  O2'       41.0010   31.5500   23.5190 O.3    80  U80        -0.2156
   1714  C1'       42.2710   31.2900   21.5100 C.3    80  U80         0.2420
   1715  N1        43.6720   31.4130   21.0180 N.ar   80  U80        -0.2534
   1716  C2        44.6510   30.6340   21.5950 C.ar   80  U80         0.3546
   1717  O2        44.4220   29.8440   22.4900 O.2    80  U80        -0.2443
   1718  N3        45.9130   30.8110   21.0830 N.ar   80  U80        -0.1530
   1719  C4        46.2850   31.6780   20.0720 C.ar   80  U80         0.2846
   1720  O4        47.4590   31.7310   19.7160 O.2    80  U80        -0.2650
   1721  C5        45.2060   32.4590   19.5200 C.ar   80  U80         0.0814
   1722  C6        43.9680   32.3010   20.0030 C.ar   80  U80         0.0870
   1723  OP1       40.6410   36.0760   17.6840 O.3    80  U80        -0.4373
   1724  OP2       43.0200   35.1240   17.4970 O.co2  80  U80        -0.5172
   1725  P         41.4050   35.3290   23.8300 P.3    81  U81         0.2141
   1726  C5'       41.3410   33.8100   25.9530 C.3    81  U81         0.1812
   1727  O5'       42.1240   34.4540   24.9600 O.3    81  U81        -0.3114
   1728  C4'       42.2090   33.0950   26.9550 C.3    81  U81         0.1773
   1729  O4'       42.9220   32.0170   26.2960 O.3    81  U81        -0.3307
   1730  C3'       43.3140   33.9260   27.5900 C.3    81  U81         0.1860
   1731  O3'       42.8670   34.7500   28.6520 O.3    81  U81        -0.3112
   1732  C2'       44.3100   32.8590   28.0230 C.3    81  U81         0.2309
   1733  O2'       43.8620   32.2030   29.2000 O.3    81  U81        -0.2156
   1734  C1'       44.2080   31.8770   26.8580 C.3    81  U81         0.2420
   1735  N1        45.2160   32.1550   25.8050 N.ar   81  U81        -0.2534
   1736  C2        46.4850   31.6350   25.9360 C.ar   81  U81         0.3546
   1737  O2        46.8320   30.9450   26.8780 O.2    81  U81        -0.2443
   1738  N3        47.3440   31.9510   24.9150 N.ar   81  U81        -0.1530
   1739  C4        47.0690   32.7190   23.8000 C.ar   81  U81         0.2846
   1740  O4        47.9480   32.9140   22.9670 O.2    81  U81        -0.2650
   1741  C5        45.7240   33.2280   23.7350 C.ar   81  U81         0.0814
   1742  C6        44.8680   32.9340   24.7200 C.ar   81  U81         0.0870
   1743  OP1       40.3780   36.1880   24.4600 O.3    81  U81        -0.4373
   1744  OP2       42.5240   35.9320   23.0710 O.co2  81  U81        -0.5172
   1745  P         43.7200   36.0420   29.0600 P.3    82  G82         0.2141
   1746  C5'       44.9430   34.5600   30.8050 C.3    82  G82         0.1812
   1747  O5'       45.0560   35.4190   29.6800 O.3    82  G82        -0.3114
   1748  C4'       46.2460   33.8750   31.1310 C.3    82  G82         0.1773
   1749  O4'       46.6610   33.0160   30.0370 O.3    82  G82        -0.3307
   1750  C3'       47.4410   34.7870   31.3510 C.3    82  G82         0.1860
   1751  O3'       47.4510   35.3770   32.6370 O.3    82  G82        -0.3112
   1752  C2'       48.6160   33.8500   31.1070 C.3    82  G82         0.2309
   1753  O2'       48.8580   33.0480   32.2530 O.3    82  G82        -0.2156
   1754  C1'       48.0720   32.9550   29.9920 C.3    82  G82         0.2408
   1755  N1        51.9680   33.0170   26.7040 N.ar   82  G82        -0.1709
   1756  C2        51.8930   32.4670   27.9610 C.ar   82  G82         0.2606
   1757  N2        53.0000   31.8520   28.4030 N.pl3  82  G82        -0.0859
   1758  N3        50.8120   32.5160   28.7310 N.ar   82  G82        -0.1918
   1759  C4        49.7910   33.1720   28.1280 C.ar   82  G82         0.1723
   1760  C5        49.7670   33.7520   26.8800 C.ar   82  G82         0.1748
   1761  C6        50.9280   33.6930   26.0720 C.ar   82  G82         0.3023
   1762  O6        51.0970   34.1530   24.9360 O.2    82  G82        -0.2633
   1763  N7        48.5260   34.3270   26.6300 N.ar   82  G82        -0.2173
   1764  C8        47.8360   34.0880   27.7120 C.ar   82  G82         0.1817
   1765  N9        48.5400   33.3890   28.6620 N.ar   82  G82        -0.2693
   1766  OP1       43.0560   36.7010   30.2070 O.3    82  G82        -0.4373
   1767  OP2       44.0500   36.8190   27.8440 O.co2  82  G82        -0.5172
   1768  P         48.5260   36.5110   32.9670 P.3    83  A83         0.2141
   1769  C5'       51.1300   36.3830   33.0270 C.3    83  A83         0.1812
   1770  O5'       49.8940   35.6920   33.1040 O.3    83  A83        -0.3114
   1771  C4'       52.2630   35.4630   32.6480 C.3    83  A83         0.1773
   1772  O4'       51.9100   34.6980   31.4660 O.3    83  A83        -0.3307
   1773  C3'       53.5630   36.1520   32.2680 C.3    83  A83         0.1860
   1774  O3'       54.3330   36.5390   33.3920 O.3    83  A83        -0.3112
   1775  C2'       54.2470   35.1170   31.3850 C.3    83  A83         0.2309
   1776  O2'       54.8550   34.1070   32.1750 O.3    83  A83        -0.2156
   1777  C1'       53.0510   34.5090   30.6520 C.3    83  A83         0.2408
   1778  N1        55.0260   35.8040   26.0480 N.ar   83  A83        -0.2040
   1779  C2        55.5440   35.1410   27.0880 C.ar   83  A83         0.2016
   1780  N3        54.9780   34.8370   28.2550 N.ar   83  A83        -0.2048
   1781  C4        53.7150   35.2920   28.3090 C.ar   83  A83         0.1692
   1782  C5        53.0470   35.9880   27.3200 C.ar   83  A83         0.1518
   1783  C6        53.7550   36.2490   26.1300 C.ar   83  A83         0.1919
   1784  N6        53.2310   36.9100   25.0930 N.pl3  83  A83        -0.1054
   1785  N7        51.7600   36.2970   27.7250 N.ar   83  A83        -0.2193
   1786  C8        51.6770   35.7910   28.9330 C.ar   83  A83         0.1816
   1787  N9        52.8200   35.1680   29.3510 N.ar   83  A83        -0.2693
   1788  OP1       48.2700   37.0230   34.3320 O.3    83  A83        -0.4373
   1789  OP2       48.6130   37.4400   31.8170 O.co2  83  A83        -0.5172
   1790  P         55.2770   37.8240   33.2880 P.3    84  A84         0.2141
   1791  C5'       57.3930   36.5580   32.3220 C.3    84  A84         0.1812
   1792  O5'       56.2990   37.4410   32.1180 O.3    84  A84        -0.3114
   1793  C4'       58.3150   36.6120   31.1330 C.3    84  A84         0.1773
   1794  O4'       57.5990   36.1200   29.9730 O.3    84  A84        -0.3307
   1795  C3'       58.7620   38.0130   30.7440 C.3    84  A84         0.1860
   1796  O3'       59.9180   38.4370   31.4430 O.3    84  A84        -0.3112
   1797  C2'       58.9550   37.9190   29.2370 C.3    84  A84         0.2309
   1798  O2'       60.2020   37.3150   28.9270 O.3    84  A84        -0.2156
   1799  C1'       57.8370   36.9500   28.8580 C.3    84  A84         0.2408
   1800  N1        55.1120   39.9410   25.6160 N.ar   84  A84        -0.2040
   1801  C2        56.3590   39.4590   25.5420 C.ar   84  A84         0.2016
   1802  N3        57.0160   38.6900   26.4100 N.ar   84  A84        -0.2048
   1803  C4        56.2440   38.4090   27.4720 C.ar   84  A84         0.1692
   1804  C5        54.9440   38.8310   27.6880 C.ar   84  A84         0.1518
   1805  C6        54.3610   39.6400   26.6950 C.ar   84  A84         0.1919
   1806  N6        53.1130   40.1160   26.7770 N.pl3  84  A84        -0.1054
   1807  N7        54.4610   38.3490   28.8920 N.ar   84  A84        -0.2193
   1808  C8        55.4630   37.6560   29.3720 C.ar   84  A84         0.1816
   1809  N9        56.5710   37.6490   28.5710 N.ar   84  A84        -0.2693
   1810  OP1       56.1250   37.8930   34.4990 O.3    84  A84        -0.4373
   1811  OP2       54.4630   38.9880   32.8670 O.co2  84  A84        -0.5172
   1812  P         60.0000   39.9460   31.9540 P.3    85  A85         0.2141
   1813  C5'       61.2570   40.4820   29.7150 C.3    85  A85         0.1812
   1814  O5'       60.1980   40.7890   30.6090 O.3    85  A85        -0.3114
   1815  C4'       61.0380   41.1420   28.3780 C.3    85  A85         0.1773
   1816  O4'       59.8710   40.5650   27.7350 O.3    85  A85        -0.3307
   1817  C3'       60.7280   42.6300   28.4250 C.3    85  A85         0.1860
   1818  O3'       61.8790   43.4430   28.5700 O.3    85  A85        -0.3112
   1819  C2'       59.9810   42.8550   27.1180 C.3    85  A85         0.2309
   1820  O2'       60.8840   42.9060   26.0240 O.3    85  A85        -0.2156
   1821  C1'       59.1730   41.5620   27.0200 C.3    85  A85         0.2408
   1822  N1        54.5560   43.8380   26.6660 N.ar   85  A85        -0.2040
   1823  C2        55.6510   43.9080   25.9000 C.ar   85  A85         0.2016
   1824  N3        56.8200   43.2880   26.0490 N.ar   85  A85        -0.2048
   1825  C4        56.8090   42.5090   27.1430 C.ar   85  A85         0.1692
   1826  C5        55.7620   42.3340   28.0270 C.ar   85  A85         0.1518
   1827  C6        54.5750   43.0470   27.7590 C.ar   85  A85         0.1919
   1828  N6        53.4820   42.9760   28.5250 N.pl3  85  A85        -0.1054
   1829  N7        56.1150   41.4530   29.0340 N.ar   85  A85        -0.2193
   1830  C8        57.3510   41.1210   28.7450 C.ar   85  A85         0.1816
   1831  N9        57.8320   41.7180   27.6150 N.ar   85  A85        -0.2693
   1832  OP1       61.2710   40.1360   32.6890 O.3    85  A85        -0.4373
   1833  OP2       58.7030   40.3050   32.5710 O.co2  85  A85        -0.5172
   1834  P         61.7650   44.7800   29.4430 P.3    86  G86         0.2141
   1835  C5'       61.3380   46.2310   27.3120 C.3    86  G86         0.1812
   1836  O5'       60.8490   45.7410   28.5510 O.3    86  G86        -0.3114
   1837  C4'       60.2550   46.9350   26.5380 C.3    86  G86         0.1773
   1838  O4'       59.1270   46.0420   26.3600 O.3    86  G86        -0.3307
   1839  C3'       59.6550   48.1630   27.2030 C.3    86  G86         0.1860
   1840  O3'       60.4450   49.3230   27.0200 O.3    86  G86        -0.3112
   1841  C2'       58.2810   48.2540   26.5520 C.3    86  G86         0.2309
   1842  O2'       58.3750   48.8270   25.2550 O.3    86  G86        -0.2156
   1843  C1'       57.9220   46.7760   26.3920 C.3    86  G86         0.2408
   1844  N1        53.4000   46.9160   28.7800 N.ar   86  G86        -0.1709
   1845  C2        53.8190   47.6160   27.6740 C.ar   86  G86         0.2606
   1846  N2        52.9240   48.4570   27.1360 N.pl3  86  G86        -0.0859
   1847  N3        55.0260   47.5020   27.1340 N.ar   86  G86        -0.1918
   1848  C4        55.7970   46.6120   27.8070 C.ar   86  G86         0.1723
   1849  C5        55.4690   45.8670   28.9170 C.ar   86  G86         0.1748
   1850  C6        54.1790   45.9990   29.4810 C.ar   86  G86         0.3023
   1851  O6        53.7120   45.4180   30.4710 O.2    86  G86        -0.2633
   1852  N7        56.5340   45.0670   29.3070 N.ar   86  G86        -0.2173
   1853  C8        57.4710   45.3370   28.4420 C.ar   86  G86         0.1817
   1854  N9        57.0960   46.2680   27.5030 N.ar   86  G86        -0.2693
   1855  OP1       63.0850   45.4520   29.4570 O.2    86  G86        -0.5172
   1856  OP2       61.0570   44.4680   30.7050 O.co2  86  G86        -0.4373
   1857  P         60.3270   50.5490   28.0390 P.3    87  A87         0.2141
   1858  C5'       58.6160   51.8470   26.5370 C.3    87  A87         0.1812
   1859  O5'       58.8750   51.1540   27.7490 O.3    87  A87        -0.3114
   1860  C4'       57.2420   52.4660   26.5560 C.3    87  A87         0.1773
   1861  O4'       56.2440   51.4170   26.6140 O.3    87  A87        -0.3307
   1862  C3'       56.9430   53.3390   27.7620 C.3    87  A87         0.1860
   1863  O3'       57.4120   54.6640   27.5940 O.3    87  A87        -0.3112
   1864  C2'       55.4290   53.2410   27.8970 C.3    87  A87         0.2309
   1865  O2'       54.7880   54.1100   26.9740 O.3    87  A87        -0.2156
   1866  C1'       55.1770   51.8010   27.4520 C.3    87  A87         0.2408
   1867  N1        52.3340   49.5410   31.1340 N.ar   87  A87        -0.2040
   1868  C2        52.0290   50.4570   30.2060 C.ar   87  A87         0.2016
   1869  N3        52.8120   51.0070   29.2780 N.ar   87  A87        -0.2048
   1870  C4        54.0570   50.5190   29.3610 C.ar   87  A87         0.1692
   1871  C5        54.5210   49.5760   30.2590 C.ar   87  A87         0.1518
   1872  C6        53.5950   49.0700   31.1910 C.ar   87  A87         0.1919
   1873  N6        53.9060   48.1560   32.1160 N.pl3  87  A87        -0.1054
   1874  N7        55.8630   49.3130   30.0460 N.ar   87  A87        -0.2193
   1875  C8        56.1770   50.0900   29.0360 C.ar   87  A87         0.1816
   1876  N9        55.1370   50.8490   28.5780 N.ar   87  A87        -0.2693
   1877  OP1       61.2560   51.6150   27.5990 O.2    87  A87        -0.5172
   1878  OP2       60.3700   50.0300   29.4250 O.co2  87  A87        -0.4373
   1879  P         58.1050   55.4170   28.8180 P.3    88  U88         0.2141
   1880  C5'       55.9000   56.7660   29.1610 C.3    88  U88         0.1812
   1881  O5'       56.8530   55.8670   29.7050 O.3    88  U88        -0.3114
   1882  C4'       54.6340   56.7920   29.9800 C.3    88  U88         0.1773
   1883  O4'       53.9760   55.5000   29.9180 O.3    88  U88        -0.3307
   1884  C3'       54.8030   57.0200   31.4720 C.3    88  U88         0.1860
   1885  O3'       55.0480   58.3660   31.8260 O.3    88  U88        -0.3112
   1886  C2'       53.4860   56.4890   32.0120 C.3    88  U88         0.2309
   1887  O2'       52.4380   57.3960   31.7110 O.3    88  U88        -0.2156
   1888  C1'       53.3140   55.2480   31.1400 C.3    88  U88         0.2420
   1889  N1        53.8980   54.0440   31.7890 N.ar   88  U88        -0.2534
   1890  C2        53.1340   53.3660   32.7140 C.ar   88  U88         0.3546
   1891  O2        52.0030   53.7050   33.0130 O.2    88  U88        -0.2443
   1892  N3        53.7390   52.2710   33.2760 N.ar   88  U88        -0.1530
   1893  C4        55.0090   51.7990   33.0130 C.ar   88  U88         0.2846
   1894  O4        55.4120   50.8000   33.5990 O.2    88  U88        -0.2650
   1895  C5        55.7500   52.5610   32.0400 C.ar   88  U88         0.0814
   1896  C6        55.1790   53.6340   31.4780 C.ar   88  U88         0.0870
   1897  OP1       58.6810   56.6890   28.3230 O.2    88  U88        -0.5172
   1898  OP2       58.9270   54.4470   29.5800 O.co2  88  U88        -0.4373
   1899  P         55.8920   58.6420   33.1520 P.3    89  G89         0.2141
   1900  C5'       53.6390   59.2600   34.3520 C.3    89  G89         0.1812
   1901  O5'       54.8210   58.4750   34.3290 O.3    89  G89        -0.3114
   1902  C4'       52.6770   58.7570   35.3990 C.3    89  G89         0.1773
   1903  O4'       52.2890   57.3930   35.0950 O.3    89  G89        -0.3307
   1904  C3'       53.2250   58.6720   36.8150 C.3    89  G89         0.1860
   1905  O3'       53.2060   59.9150   37.4910 O.3    89  G89        -0.3112
   1906  C2'       52.3360   57.6190   37.4640 C.3    89  G89         0.2309
   1907  O2'       51.0980   58.1790   37.8720 O.3    89  G89        -0.2156
   1908  C1'       52.0820   56.6720   36.2920 C.3    89  G89         0.2408
   1909  N1        53.0370   52.1450   38.3880 N.ar   89  G89        -0.1709
   1910  C2        52.0000   53.0170   38.6230 C.ar   89  G89         0.2606
   1911  N2        51.0940   52.6370   39.5370 N.pl3  89  G89        -0.0859
   1912  N3        51.8600   54.1820   38.0050 N.ar   89  G89        -0.1918
   1913  C4        52.8600   54.4030   37.1180 C.ar   89  G89         0.1723
   1914  C5        53.9330   53.5990   36.8150 C.ar   89  G89         0.1748
   1915  C6        54.0720   52.3590   37.4830 C.ar   89  G89         0.3023
   1916  O6        54.9600   51.5050   37.3500 O.2    89  G89        -0.2633
   1917  N7        54.7330   54.1940   35.8460 N.ar   89  G89        -0.2173
   1918  C8        54.1390   55.3270   35.5890 C.ar   89  G89         0.1817
   1919  N9        52.9940   55.5150   36.3230 N.ar   89  G89        -0.2693
   1920  OP1       56.2680   60.0720   33.1900 O.2    89  G89        -0.5172
   1921  OP2       56.9260   57.5900   33.2750 O.co2  89  G89        -0.4373
   1922  P         54.4800   60.3480   38.3480 P.3    90  A90         0.2141
   1923  C5'       53.0540   59.7670   40.4620 C.3    90  A90         0.1812
   1924  O5'       54.2580   59.5800   39.7340 O.3    90  A90        -0.3114
   1925  C4'       52.7850   58.6190   41.4020 C.3    90  A90         0.1773
   1926  O4'       52.5840   57.3970   40.6460 O.3    90  A90        -0.3307
   1927  C3'       53.9040   58.2640   42.3700 C.3    90  A90         0.1860
   1928  O3'       53.9670   59.1210   43.4970 O.3    90  A90        -0.3112
   1929  C2'       53.5790   56.8190   42.7220 C.3    90  A90         0.2309
   1930  O2'       52.5090   56.7560   43.6530 O.3    90  A90        -0.2156
   1931  C1'       53.0790   56.2940   41.3760 C.3    90  A90         0.2408
   1932  N1        55.8360   52.0160   40.5920 N.ar   90  A90        -0.2040
   1933  C2        54.8240   52.2910   41.4220 C.ar   90  A90         0.2016
   1934  N3        54.1510   53.4290   41.5720 N.ar   90  A90        -0.2048
   1935  C4        54.6190   54.3710   40.7400 C.ar   90  A90         0.1692
   1936  C5        55.6490   54.2400   39.8300 C.ar   90  A90         0.1518
   1937  C6        56.2820   52.9840   39.7680 C.ar   90  A90         0.1919
   1938  N6        57.2940   52.7100   38.9410 N.pl3  90  A90        -0.1054
   1939  N7        55.8530   55.4260   39.1450 N.ar   90  A90        -0.2193
   1940  C8        54.9510   56.2380   39.6460 C.ar   90  A90         0.1816
   1941  N9        54.1700   55.6650   40.6100 N.ar   90  A90        -0.2693
   1942  OP1       54.3420   61.7820   38.6870 O.3    90  A90        -0.4373
   1943  OP2       55.7100   59.8460   37.6930 O.co2  90  A90        -0.5172
   1944  P         55.3900   59.5240   44.1080 P.3    91  G91         0.2141
   1945  C5'       55.0950   57.9950   46.2150 C.3    91  G91         0.1812
   1946  O5'       55.7900   58.2580   45.0030 O.3    91  G91        -0.3114
   1947  C4'       55.4040   56.6190   46.7520 C.3    91  G91         0.1773
   1948  O4'       55.0460   55.6200   45.7620 O.3    91  G91        -0.3307
   1949  C3'       56.8660   56.3230   47.0550 C.3    91  G91         0.1860
   1950  O3'       57.3020   56.8330   48.3030 O.3    91  G91        -0.3112
   1951  C2'       56.9000   54.8030   46.9830 C.3    91  G91         0.2309
   1952  O2'       56.3090   54.2340   48.1410 O.3    91  G91        -0.2156
   1953  C1'       55.9700   54.5540   45.7990 C.3    91  G91         0.2408
   1954  N1        59.0640   51.9310   42.7190 N.ar   91  G91        -0.1709
   1955  C2        58.5080   51.5560   43.9170 C.ar   91  G91         0.2606
   1956  N2        58.8140   50.3280   44.3560 N.pl3  91  G91        -0.0859
   1957  N3        57.7070   52.3300   44.6360 N.ar   91  G91        -0.1918
   1958  C4        57.5070   53.5320   44.0450 C.ar   91  G91         0.1723
   1959  C5        58.0140   53.9990   42.8550 C.ar   91  G91         0.1748
   1960  C6        58.8660   53.1620   42.1000 C.ar   91  G91         0.3023
   1961  O6        59.4120   53.4070   41.0150 O.2    91  G91        -0.2633
   1962  N7        57.5690   55.2890   42.5990 N.ar   91  G91        -0.2173
   1963  C8        56.8140   55.5750   43.6210 C.ar   91  G91         0.1817
   1964  N9        56.7260   54.5530   44.5350 N.ar   91  G91        -0.2693
   1965  OP1       55.1870   60.6120   45.0920 O.3    91  G91        -0.4373
   1966  OP2       56.3650   59.6870   43.0060 O.co2  91  G91        -0.5172
   1967  P         58.8000   57.3730   48.4750 P.3    92  C92         0.2141
   1968  C5'       59.7550   55.1160   49.3720 C.3    92  C92         0.1812
   1969  O5'       59.7210   56.0720   48.3230 O.3    92  C92        -0.3114
   1970  C4'       60.3400   53.7990   48.9250 C.3    92  C92         0.1773
   1971  O4'       59.7740   53.4170   47.6440 O.3    92  C92        -0.3307
   1972  C3'       61.8440   53.7670   48.6910 C.3    92  C92         0.1860
   1973  O3'       62.5890   53.6200   49.8900 O.3    92  C92        -0.3112
   1974  C2'       61.9920   52.5820   47.7470 C.3    92  C92         0.2309
   1975  O2'       61.9210   51.3560   48.4610 O.3    92  C92        -0.2156
   1976  C1'       60.7350   52.7130   46.8880 C.3    92  C92         0.2420
   1977  N1        60.9950   53.4500   45.6250 N.ar   92  C92        -0.2535
   1978  C2        61.6750   52.8100   44.5840 C.ar   92  C92         0.3532
   1979  O2        62.0390   51.6370   44.7290 O.2    92  C92        -0.2443
   1980  N3        61.9140   53.4950   43.4400 N.ar   92  C92        -0.1739
   1981  C4        61.5030   54.7580   43.3230 C.ar   92  C92         0.1759
   1982  N4        61.7620   55.3910   42.1750 N.pl3  92  C92        -0.1070
   1983  C5        60.8100   55.4280   44.3730 C.ar   92  C92         0.0566
   1984  C6        60.5820   54.7430   45.4970 C.ar   92  C92         0.0850
   1985  OP1       58.9830   57.7790   49.8860 O.3    92  C92        -0.4373
   1986  OP2       59.0970   58.3230   47.3800 O.co2  92  C92        -0.5172
   1987  P         63.9990   54.3470   50.1140 P.3    93  C93         0.2141
   1988  C5'       65.3070   52.0780   49.9840 C.3    93  C93         0.1812
   1989  O5'       65.0750   53.3700   49.4430 O.3    93  C93        -0.3114
   1990  C4'       66.1160   51.2200   49.0410 C.3    93  C93         0.1773
   1991  O4'       65.4010   51.0680   47.7870 O.3    93  C93        -0.3307
   1992  C3'       67.4770   51.7680   48.6370 C.3    93  C93         0.1860
   1993  O3'       68.4870   51.4920   49.5930 O.3    93  C93        -0.3112
   1994  C2'       67.7220   51.0940   47.2940 C.3    93  C93         0.2309
   1995  O2'       68.1750   49.7620   47.4830 O.3    93  C93        -0.2156
   1996  C1'       66.3100   51.0460   46.7080 C.3    93  C93         0.2420
   1997  N1        65.9930   52.2010   45.8220 N.ar   93  C93        -0.2535
   1998  C2        66.3330   52.1610   44.4650 C.ar   93  C93         0.3532
   1999  O2        66.8950   51.1570   44.0100 O.2    93  C93        -0.2443
   2000  N3        66.0350   53.2270   43.6820 N.ar   93  C93        -0.1739
   2001  C4        65.4280   54.2940   44.2060 C.ar   93  C93         0.1759
   2002  N4        65.1530   55.3230   43.3980 N.pl3  93  C93        -0.1070
   2003  C5        65.0750   54.3540   45.5860 C.ar   93  C93         0.0566
   2004  C6        65.3730   53.2970   46.3470 C.ar   93  C93         0.0850
   2005  OP1       64.3070   54.2870   51.5590 O.3    93  C93        -0.4373
   2006  OP2       64.0080   55.6490   49.4100 O.co2  93  C93        -0.5172
   2007  P         69.8530   52.3250   49.6130 P.3    94  G94         0.2141
   2008  C5'       71.3890   50.8630   48.0340 C.3    94  G94         0.1813
   2009  O5'       70.5410   51.9900   48.2070 O.3    94  G94        -0.3114
   2010  C4'       72.2480   51.0270   46.8040 C.3    94  G94         0.1801
   2011  O4'       71.3870   51.1640   45.6440 O.3    94  G94        -0.3306
   2012  C3'       73.1230   52.2710   46.7770 C.3    94  G94         0.2161
   2013  O3'       74.3580   52.1000   47.4510 O.3    94  G94        -0.2175
   2014  C2'       73.2760   52.5470   45.2870 C.3    94  G94         0.2337
   2015  O2'       74.2400   51.6760   44.7130 O.3    94  G94        -0.2155
   2016  C1'       71.8920   52.1520   44.7730 C.3    94  G94         0.2409
   2017  N1        68.9250   55.3190   42.0780 N.ar   94  G94        -0.1709
   2018  C2        69.7300   54.2920   41.6440 C.ar   94  G94         0.2606
   2019  N2        69.7520   54.0720   40.3240 N.pl3  94  G94        -0.0859
   2020  N3        70.4630   53.5290   42.4420 N.ar   94  G94        -0.1918
   2021  C4        70.3220   53.8860   43.7380 C.ar   94  G94         0.1723
   2022  C5        69.5460   54.8920   44.2710 C.ar   94  G94         0.1748
   2023  C6        68.7680   55.6980   43.4060 C.ar   94  G94         0.3023
   2024  O6        68.0180   56.6420   43.6930 O.2    94  G94        -0.2633
   2025  N7        69.6780   54.9330   45.6530 N.ar   94  G94        -0.2173
   2026  C8        70.5150   53.9690   45.9180 C.ar   94  G94         0.1817
   2027  N9        70.9520   53.2900   44.8050 N.ar   94  G94        -0.2693
   2028  OP1       70.7060   51.8160   50.7120 O.3    94  G94        -0.4373
   2029  OP2       69.5290   53.7660   49.5260 O.co2  94  G94        -0.5172
@<TRIPOS>BOND
     1   734   733    1
     2   733   735   ar
     3   733   732   ar
     4   735   736   ar
     5   732   730   ar
     6   737   719    2
     7   736   729   ar
     8   738   719    1
     9   730   729   ar
    10   730   731    2
    11   729   728    1
    12   719   703    1
    13   719   721    1
    14   703   702    1
    15   723   728    1
    16   723   722    1
    17   705   704    1
    18   728   726    1
    19   720   721    1
    20   720   722    1
    21   704   702    1
    22   704   706    1
    23   702   700    1
    24   722   724    1
    25   726   724    1
    26   726   727    1
    27   706   716    1
    28   706   701    1
    29   724   725    1
    30   700   698    1
    31   700   701    1
    32   756   755    2
    33   716   715   ar
    34   716   710   ar
    35   715   714   ar
    36   699   698    1
    37   699   697    1
    38   714   711   ar
    39   718   697    2
    40   710   709   ar
    41   710   711   ar
    42   709   708   ar
    43   711   712   ar
    44   755   754   ar
    45   755   749   ar
    46   725   739    1
    47   757   754   ar
    48   757   758   ar
    49   717   697    1
    50   697   680    1
    51   708   707   ar
    52   712   707   ar
    53   712   713    1
    54   754   753   ar
    55   749   750   ar
    56   758   759   ar
    57   652   634    2
    58   753   759   ar
    59   753   752   ar
    60   739   760    2
    61   739   741    1
    62   739   761    1
    63   750   752   ar
    64   750   751    1
    65   759   748    1
    66   673   654    2
    67   691   690    2
    68   696   674    2
    69   680   679    1
    70   297   296    1
    71   653   634    1
    72   741   740    1
    73   291   296   ar
    74   291   292   ar
    75   672   654    1
    76   690   684   ar
    77   690   689   ar
    78   632   614    2
    79   634   620    1
    80   634   636    1
    81   743   748    1
    82   743   742    1
    83   684   685   ar
    84   296   295   ar
    85   695   674    1
    86   679   681    1
    87   679   677    1
    88   292   293   ar
    89   654   656    1
    90   654   640    1
    91   748   746    1
    92   689   692   ar
    93   689   688   ar
    94   692   693   ar
    95   674   676    1
    96   674   660    1
    97   685   686    1
    98   685   687   ar
    99   409   408    2
   100   436   415    2
   101   676   675    1
   102   681   682    1
   103   681   683    1
   104   635   636    1
   105   635   637    1
   106   620   619    1
   107   688   687   ar
   108   688   694   ar
   109   740   742    1
   110   693   694   ar
   111   431   430    1
   112   633   614    1
   113   614   616    1
   114   614   597    1
   115   295   294   ar
   116   295   298   ar
   117   742   744    1
   118   694   683    1
   119   410   407   ar
   120   410   411   ar
   121   423   422    1
   122   408   407   ar
   123   408   402   ar
   124   293   294   ar
   125   656   655    1
   126   640   639    1
   127   675   677    1
   128   430   429   ar
   129   430   425   ar
   130   616   615    1
   131   432   429   ar
   132   432   433   ar
   133   407   406   ar
   134   677   678    1
   135   294   300   ar
   136   435   415    1
   137   429   428   ar
   138   411   412   ar
   139   683   678    1
   140   746   744    1
   141   746   747    1
   142   425   426   ar
   143   402   403   ar
   144   422   420    1
   145   422   424    1
   146   415   398    1
   147   415   417    1
   148   298   299   ar
   149   615   617    1
   150   639   637    1
   151   639   641    1
   152   619   617    1
   153   619   621    1
   154   660   659    1
   155   433   434   ar
   156   454   453    2
   157   669   668    1
   158   637   638    1
   159   398   397    1
   160   399   397    1
   161   399   400    1
   162   399   401    1
   163   428   434   ar
   164   428   427   ar
   165   426   427   ar
   166   406   412   ar
   167   406   405   ar
   168   397   395    1
   169   597   596    1
   170   744   745    1
   171   412   401    1
   172   434   424    1
   173   659   657    1
   174   659   661    1
   175   670   668   ar
   176   670   671   ar
   177   420   421    1
   178   420   418    1
   179   655   657    1
   180   403   405   ar
   181   403   404    1
   182   668   667   ar
   183   617   618    1
   184   421   437    1
   185   299   300   ar
   186   300   290    1
   187   650   651   ar
   188   650   648   ar
   189  1607  1606   ar
   190  1607  1608   ar
   191   347   326    2
   192   455   452   ar
   193   455   456   ar
   194   453   452   ar
   195   453   447   ar
   196  1606  1611   ar
   197  1648  1647    1
   198   651   644   ar
   199   424   419    1
   200  1629  1630   ar
   201  1629  1628   ar
   202   671   664   ar
   203   459   437    2
   204   638   643    1
   205   417   416    1
   206   667   665   ar
   207   621   622    1
   208   621   623    1
   209   401   396    1
   210   745   762    1
   211   285   290    1
   212   285   284    1
   213   452   451   ar
   214   657   658    1
   215   414   392    2
   216  1630  1631   ar
   217   367   349    2
   218   641   643    1
   219   641   642    1
   220   612   591    2
   221   661   663    1
   222   661   662    1
   223   348   326    1
   224   649   648    1
   225   290   288    1
   226   447   448   ar
   227   456   457   ar
   228   648   647   ar
   229  1608  1609   ar
   230   664   665   ar
   231   664   663    1
   232   665   666    2
   233  1628  1633   ar
   234   596   594    1
   235   596   598    1
   236   395   393    1
   237   395   396    1
   238   437   439    1
   239   437   458    1
   240   386   385    2
   241   644   643    1
   242   644   645   ar
   243   368   349    1
   244   393   394    1
   245   418   416    1
   246   418   419    1
   247  1611  1612    1
   248  1611  1610   ar
   249   631   630   ar
   250   631   624   ar
   251   324   303    2
   252   326   309    1
   253   326   328    1
   254   592   594    1
   255   592   593    1
   256  1644  1649    1
   257  1644  1643    1
   258   392   413    1
   259   392   394    1
   260   392   375    1
   261   618   623    1
   262   630   628   ar
   263  1649  1647    1
   264  1649  1659    1
   265   390   369    2
   266  1626  1625    1
   267   779   780   ar
   268   779   776   ar
   269   613   591    1
   270   391   369    1
   271   658   663    1
   272  1643  1645    1
   273  1643  1641    1
   274  1647  1645    1
   275   780   781   ar
   276  1652  1651   ar
   277  1652  1653   ar
   278   451   457   ar
   279   451   450   ar
   280   623   624    1
   281   349   332    1
   282   349   351    1
   283   594   595    1
   284   457   446    1
   285   624   625   ar
   286   591   593    1
   287   591   574    1
   288   387   384   ar
   289   387   388   ar
   290   647   645   ar
   291   284   282    1
   292   284   286    1
   293   448   450   ar
   294   448   449    1
   295  1609  1610   ar
   296  1609  1615   ar
   297   385   384   ar
   298   385   379   ar
   299   645   646    2
   300  1631  1637   ar
   301  1631  1632   ar
   302   439   438    1
   303  1651  1650   ar
   304   766   771    1
   305   766   765    1
   306   309   308    1
   307   282   283    1
   308  1646  1645    1
   309  1646  1662    1
   310  1610  1613   ar
   311   628   629    1
   312   628   627   ar
   313   599   598    1
   314   778   777    1
   315   369   371    1
   316   369   355    1
   317   598   600    1
   318  1627  1625    1
   319  1627  1637    1
   320  1627  1622    1
   321   762   783    2
   322   762   764    1
   323   762   782    1
   324   776   777   ar
   325   776   775   ar
   326   384   383   ar
   327   781   771    1
   328   781   775   ar
   329  1633  1632   ar
   330  1633  1634    1
   331  1641  1642    1
   332   477   476    2
   333   328   327    1
   334   388   389   ar
   335   288   289    1
   336   288   286    1
   337   283   281    1
   338  1659  1653   ar
   339  1659  1658   ar
   340  1625  1623    1
   341   763   764    1
   342   763   765    1
   343   371   370    1
   344   308   306    1
   345   308   310    1
   346   625   627   ar
   347   625   626    2
   348   441   446    1
   349   441   440    1
   350  1653  1654   ar
   351   777   772   ar
   352   379   380   ar
   353   327   329    1
   354   332   331    1
   355  1637  1636   ar
   356   303   305    1
   357   303   325    1
   358   303   287    1
   359   771   769    1
   360   375   374    1
   361   446   444    1
   362   775   774   ar
   363   351   350    1
   364  1632  1635   ar
   365  1680  1662    2
   366  1622  1621    1
   367   305   304    1
   368   374   376    1
   369   374   372    1
   370  1615  1605    1
   371  1615  1614   ar
   372   438   440    1
   373   765   767    1
   374   286   287    1
   375   476   470   ar
   376   476   475   ar
   377   304   306    1
   378  1613  1614   ar
   379   383   389   ar
   380   383   382   ar
   381  1605  1603    1
   382  1605  1600    1
   383  1650  1655   ar
   384   574   573    1
   385   595   600    1
   386   470   471   ar
   387   389   378    1
   388   376   378    1
   389   376   377    1
   390  1662  1664    1
   391  1662  1681    1
   392   306   307    1
   393   311   310    1
   394   772   773   ar
   395  1604  1603    1
   396   329   331    1
   397   329   330    1
   398   331   333    1
   399   380   382   ar
   400   380   381    1
   401   600   611    1
   402   310   312    1
   403  1663  1664    1
   404  1663  1665    1
   405  1642  1640    1
   406   774   773   ar
   407   355   354    1
   408   440   442    1
   409   370   372    1
   410   350   352    1
   411  1308  1309   ar
   412  1308  1313   ar
   413  1621  1623    1
   414  1621  1619    1
   415  1658  1657   ar
   416  1309  1310   ar
   417   475   478   ar
   418   475   474   ar
   419  1603  1601    1
   420   478   479   ar
   421  1654  1655   ar
   422  1654  1657   ar
   423  1623  1624    1
   424  1636  1635   ar
   425   610   611   ar
   426   610   609   ar
   427   471   472    1
   428   471   473   ar
   429   281   301    2
   430   281   264    1
   431   281   302    1
   432   611   605   ar
   433   372   373    1
   434  1624  1640    1
   435   378   373    1
   436   354   352    1
   437   354   356    1
   438  1655  1656    1
   439   444   442    1
   440   444   445    1
   441  1665  1666    1
   442  1665  1667    1
   443  1600  1599    1
   444   769   767    1
   445   769   770    1
   446  1666  1671    1
   447   500   499    2
   448  1310  1311   ar
   449  1660  1640    2
   450   767   768    1
   451  1314  1313    1
   452  1313  1312   ar
   453   474   473   ar
   454   474   480   ar
   455   573   575    1
   456   573   571    1
   457   479   480   ar
   458   609   606   ar
   459   442   443    1
   460   576   575    1
   461  1640  1661    1
   462   352   353    1
   463   264   263    1
   464   605   604   ar
   465   605   606   ar
   466   493   499   ar
   467   493   494   ar
   468   365   366   ar
   469   365   363   ar
   470   307   312    1
   471   330   335    1
   472   575   577    1
   473   495   494    1
   474   604   602   ar
   475   499   498   ar
   476   312   323    1
   477   333   334    1
   478   333   335    1
   479   606   607   ar
   480   480   469    1
   481  1619  1620    1
   482   366   359   ar
   483  1311  1312   ar
   484  1311  1317   ar
   485  1331  1332   ar
   486  1331  1330   ar
   487  1312  1315   ar
   488   364   363    2
   489   356   357    1
   490   356   358    1
   491   494   496   ar
   492  1601  1599    1
   493  1601  1602    1
   494  1332  1333   ar
   495   768   784    1
   496   363   362   ar
   497   800   799    1
   498  1671  1669    1
   499  1671  1672    1
   500  1599  1597    1
   501  1670  1669    1
   502   602   603    1
   503   602   601   ar
   504   589   568    2
   505   345   344   ar
   506   345   346   ar
   507  1667  1668    1
   508  1667  1669    1
   509   607   601   ar
   510   607   608    2
   511   571   569    1
   512   571   572    1
   513  1668  1682    1
   514   322   323   ar
   515   322   321   ar
   516  1620  1618    1
   517   335   346    1
   518   266   265    1
   519  1330  1335   ar
   520   570   569    1
   521   570   568    1
   522   353   358    1
   523   469   464    1
   524   469   467    1
   525   323   317   ar
   526   498   501   ar
   527   498   497   ar
   528  1317  1307    1
   529  1317  1316   ar
   530   443   460    1
   531   344   341   ar
   532   359   358    1
   533   359   360   ar
   534   263   265    1
   535   263   261    1
   536   801   798   ar
   537   801   802   ar
   538   482   460    2
   539  1602  1618    1
   540   464   463    1
   541   346   340   ar
   542  1328  1327    1
   543  1315  1316   ar
   544   799   798   ar
   545   799   794   ar
   546   496   497   ar
   547  1307  1302    1
   548  1307  1305    1
   549   590   568    1
   550  1616  1596    2
   551  1679  1672   ar
   552  1679  1678   ar
   553  1585  1584    1
   554   265   267    1
   555   362   360   ar
   556   568   554    1
   557  1333  1339   ar
   558  1333  1334   ar
   559  1329  1324    1
   560  1329  1339    1
   561  1329  1327    1
   562   577   588    1
   563   577   572    1
   564  1672  1673   ar
   565   798   797   ar
   566   501   502   ar
   567   497   503   ar
   568  1306  1305    1
   569  1581  1580    1
   570   805   784    2
   571   321   318   ar
   572   802   803   ar
   573  1597  1598    1
   574   360   361    2
   575   794   795   ar
   576  1324  1323    1
   577   822   821    1
   578   588   587   ar
   579   588   582   ar
   580  1598  1596    1
   581  1394  1393    2
   582  1703  1682    2
   583   341   340   ar
   584   341   342   ar
   585  1335  1334   ar
   586  1335  1336    1
   587  1339  1338   ar
   588   340   339   ar
   589   784   786    1
   590   784   804    1
   591  1618  1639    2
   592  1618  1638    1
   593   587   586   ar
   594   460   462    1
   595   460   481    1
   596  1302  1301    1
   597   317   318   ar
   598   317   316   ar
   599   261   259    1
   600   261   262    1
   601  1305  1303    1
   602  1682  1704    1
   603  1682  1684    1
   604   581   582   ar
   605   581   579   ar
   606   582   583   ar
   607  1327  1325    1
   608  1678  1676   ar
   609  1334  1337   ar
   610   462   461    1
   611   797   803   ar
   612   797   796   ar
   613  1579  1596    1
   614  1579  1578    1
   615   586   583   ar
   616   467   468    1
   617   467   465    1
   618   502   503   ar
   619   803   793    1
   620  1596  1617    1
   621   503   492    1
   622   583   584   ar
   623  1580  1578    1
   624  1580  1582    1
   625   579   580    1
   626   579   578   ar
   627   795   796   ar
   628   318   319   ar
   629  1395  1393   ar
   630  1395  1396   ar
   631  1584  1586   ar
   632  1584  1583   ar
   633   786   785    1
   634   259   260    1
   635  1673  1674    2
   636  1673  1675   ar
   637   316   314   ar
   638   342   343    2
   639   342   336   ar
   640   339   337   ar
   641  1393  1392   ar
   642   463   461    1
   643   463   465    1
   644   788   793    1
   645   788   787    1
   646  1586  1587   ar
   647   821   816   ar
   648   821   820   ar
   649  1323  1325    1
   650  1323  1321    1
   651   816   817   ar
   652   578   584   ar
   653   584   585    2
   654  1414  1413    2
   655  1683  1684    1
   656  1683  1685    1
   657  1338  1337   ar
   658   267   262    1
   659   267   278    1
   660   554   553    1
   661   793   791    1
   662   465   466    1
   663  1397  1396    1
   664  1578  1576    1
   665  1410  1409    1
   666   492   487    1
   667   492   490    1
   668   337   336   ar
   669   337   338    1
   670   785   787    1
   671  1676  1675   ar
   672  1676  1677    1
   673   277   278   ar
   674   277   276   ar
   675  1396  1398   ar
   676  1301  1303    1
   677  1301  1299    1
   678  1325  1326    1
   679  1583  1589   ar
   680  1413  1415   ar
   681  1413  1412   ar
   682   278   272   ar
   683  1303  1304    1
   684   820   823   ar
   685   820   819   ar
   686  1392  1391    1
   687  1392  1399   ar
   688   817   818   ar
   689  1411  1412    1
   690  1411  1406    1
   691  1411  1409    1
   692   319   313   ar
   693   319   320    2
   694   314   313   ar
   695   314   315    1
   696  1582  1593    1
   697  1582  1577    1
   698  1391  1386    1
   699  1391  1389    1
   700   487   486    1
   701  1321  1322    1
   702   823   824   ar
   703  1326  1342    1
   704   787   789    1
   705  1415  1416   ar
   706   260   258    1
   707  1686  1685    1
   708  1686  1691    1
   709  1587  1593   ar
   710  1587  1588   ar
   711   276   273   ar
   712  1685  1687    1
   713  1412  1419   ar
   714   553   555    1
   715   553   551    1
   716  1300  1299    1
   717  1300  1298    1
   718  1406  1405    1
   719  1360  1342    2
   720   566   548    2
   721   567   548    1
   722  1390  1389    1
   723   280   258    2
   724  1409  1407    1
   725   279   258    1
   726   272   273   ar
   727   272   271   ar
   728  1398  1399   ar
   729  1593  1592   ar
   730   843   842    1
   731  1576  1577    1
   732  1576  1574    1
   733  1304  1320    1
   734  1386  1385    1
   735   555   556    1
   736   555   557    1
   737   819   818   ar
   738   819   825   ar
   739  1319  1298    2
   740   273   274   ar
   741   505   483    2
   742   490   491    1
   743   490   488    1
   744  1322  1320    1
   745   258   242    1
   746  1416  1417    1
   747  1416  1418   ar
   748   466   483    1
   749  1342  1361    1
   750  1342  1344    1
   751  1589  1588   ar
   752  1589  1590    2
   753  1389  1387    1
   754   791   789    1
   755   791   792    1
   756   824   825   ar
   757   271   269   ar
   758   548   550    1
   759   548   534    1
   760  1419  1418   ar
   761  1588  1591   ar
   762   789   790    1
   763  1562  1561    1
   764  1405  1407    1
   765  1405  1403    1
   766   550   549    1
   767   841   842   ar
   768   841   839   ar
   769  1298  1318    1
   770  1298  1284    1
   771  1691  1702    1
   772  1691  1689    1
   773  1701  1702   ar
   774  1701  1700   ar
   775   825   815    1
   776  1426  1431    1
   777  1426  1425    1
   778   485   483    1
   779   485   484    1
   780   486   488    1
   781   486   484    1
   782   842   844   ar
   783   274   275    2
   784   274   268   ar
   785   483   504    1
   786   547   528    2
   787   551   549    1
   788   551   552    1
   789  1430  1429    1
   790  1687  1688    1
   791  1687  1689    1
   792  1407  1408    1
   793   269   268   ar
   794   269   270    1
   795  1320  1341    2
   796  1320  1340    1
   797   546   528    1
   798  1431  1432    1
   799  1431  1429    1
   800  1434  1433    2
   801  1592  1591   ar
   802   488   489    1
   803  1425  1423    1
   804  1425  1427    1
   805  1702  1696   ar
   806  1574  1575    1
   807  1560  1561   ar
   808  1560  1566   ar
   809  1385  1387    1
   810  1385  1383    1
   811   863   862    1
   812  1561  1563   ar
   813   840   839    2
   814  1700  1697   ar
   815   565   564   ar
   816   565   558   ar
   817   557   558    1
   818   557   552    1
   819  1688  1705    1
   820   564   562   ar
   821   861   862   ar
   822   861   859   ar
   823   558   559   ar
   824   562   563    2
   825   562   561   ar
   826  1408  1422    1
   827   559   561   ar
   828   559   560    2
   829   839   838   ar
   830  1403  1404    1
   831   860   859    2
   832  1423  1424    1
   833  1575  1573    1
   834  1387  1388    1
   835  1690  1689    1
   836  1344  1343    1
   837   256   236    2
   838   242   241    1
   839   528   530    1
   840   528   512    1
   841  1433  1432   ar
   842  1433  1435   ar
   843   790   806    1
   844   815   810    1
   845   815   813    1
   846  1432  1439   ar
   847   844   845   ar
   848   534   533    1
   849  1429  1427    1
   850  1284  1283    1
   851   862   864   ar
   852   859   858   ar
   853   880   879    2
   854  1567  1566    2
   855   810   809    1
   856  1388  1402    1
   857  1724  1705    2
   858  1566  1565   ar
   859   234   213    2
   860  1358  1359   ar
   861  1358  1356   ar
   862  1563  1564   ar
   863  1404  1402    1
   864  1723  1705    1
   865  1696  1697   ar
   866  1696  1695   ar
   867  1383  1384    1
   868  1427  1428    1
   869  1705  1707    1
   870  1697  1698   ar
   871   238   236    1
   872   238   237    1
   873   530   529    1
   874  1384  1382    1
   875  1435  1436   ar
   876   257   236    1
   877   526   506    2
   878  1343  1345    1
   879   827   806    2
   880   489   506    1
   881  1428  1442    1
   882  1286  1285    1
   883   838   845   ar
   884   838   837    1
   885  1357  1356    2
   886  1439  1438   ar
   887  1424  1422    1
   888   236   219    1
   889   241   239    1
   890   241   243    1
   891   808   806    1
   892   808   807    1
   893   533   535    1
   894   533   531    1
   895   879   881   ar
   896   879   878   ar
   897  1359  1352   ar
   898   881   882   ar
   899   806   826    1
   900  1422  1440    2
   901  1422  1441    1
   902  1356  1355   ar
   903   508   506    1
   904   508   507    1
   905   237   239    1
   906   512   511    1
   907  1564  1565   ar
   908  1564  1570   ar
   909   864   865   ar
   910  1565  1568   ar
   911  1695  1693   ar
   912   858   865   ar
   913   858   857    1
   914  1402  1421    2
   915  1402  1420    1
   916  1283  1285    1
   917  1283  1281    1
   918  1285  1287    1
   919   813   814    1
   920   813   811    1
   921   235   213    1
   922  1573  1594    2
   923  1573  1556    1
   924  1573  1595    1
   925  1446  1445    1
   926  1446  1451    1
   927   529   531    1
   928  1436  1438   ar
   929  1436  1437    2
   930   506   527    1
   931  1558  1557    1
   932   213   215    1
   933   213   197    1
   934  1557  1555    1
   935  1557  1559    1
   936  1698  1699    2
   937  1698  1692   ar
   938   809   807    1
   939   809   811    1
   940   837   832    1
   941   837   835    1
   942   507   509    1
   943  1443  1445    1
   944  1443  1444    1
   945   876   875    1
   946  1400  1382    2
   947   877   878    1
   948   877   875    1
   949   877   872    1
   950   896   895    1
   951   239   240    1
   952   878   885   ar
   953   882   883    1
   954   882   884   ar
   955   535   536    1
   956   535   537    1
   957   857   852    1
   958   857   855    1
   959  1556  1555    1
   960   243   244    1
   961   243   245    1
   962   531   532    1
   963  1445  1447    1
   964  1382  1401    1
   965  1382  1368    1
   966  1707  1706    1
   967  1463  1442    2
   968   811   812    1
   969   897   892    1
   970   897   895    1
   971   897   908    1
   972   892   891    1
   973  1345  1346    1
   974  1345  1347    1
   975   511   509    1
   976   511   513    1
   977  1346  1351    1
   978   900   899    1
   979  1442  1444    1
   980  1442  1464    1
   981  1693  1692   ar
   982  1693  1694    1
   983  1570  1559    1
   984  1570  1569   ar
   985  1451  1462    1
   986  1451  1449    1
   987  1568  1569   ar
   988   254   253   ar
   989   254   255   ar
   990   832   831    1
   991  1352  1351    1
   992  1352  1353   ar
   993   215   214    1
   994  1555  1553    1
   995   544   545   ar
   996   544   542   ar
   997  1721  1722   ar
   998  1721  1719   ar
   999   901   899   ar
  1000   901   902   ar
  1001  1484  1465    2
  1002   219   218    1
  1003   875   873    1
  1004   545   538   ar
  1005  1355  1353   ar
  1006  1720  1719    2
  1007   872   871    1
  1008  1706  1708    1
  1009  1281  1279    1
  1010  1281  1282    1
  1011  1559  1554    1
  1012  1455  1453   ar
  1013  1455  1456   ar
  1014  1347  1348    1
  1015  1347  1349    1
  1016   852   851    1
  1017   253   250   ar
  1018  1454  1453    1
  1019   509   510    1
  1020   899   898   ar
  1021   211   191    2
  1022   197   196    1
  1023   885   884   ar
  1024  1462  1456   ar
  1025  1462  1461   ar
  1026   856   855    1
  1027   895   893    1
  1028   543   542    1
  1029  1290  1289    2
  1030   214   216    1
  1031   855   853    1
  1032   908   902   ar
  1033   908   907   ar
  1034  1722  1715   ar
  1035  1453  1452   ar
  1036   542   541   ar
  1037   835   836    1
  1038   835   833    1
  1039  1287  1288    1
  1040  1287  1282    1
  1041  1456  1457   ar
  1042   891   889    1
  1043   891   893    1
  1044  1483  1465    1
  1045  1719  1718   ar
  1046  1351  1349    1
  1047   538   537    1
  1048   538   539   ar
  1049   902   903   ar
  1050   240   245    1
  1051   537   532    1
  1052   218   216    1
  1053   218   220    1
  1054  1450  1449    1
  1055  1461  1460   ar
  1056  1368  1367    1
  1057  1353  1354    2
  1058   245   255    1
  1059   193   191    1
  1060   193   192    1
  1061   255   249   ar
  1062  1279  1280    1
  1063  1348  1362    1
  1064  1296  1278    2
  1065  1452  1458   ar
  1066  1709  1708    1
  1067  1709  1714    1
  1068  1457  1460   ar
  1069  1457  1458   ar
  1070  1465  1448    1
  1071  1465  1467    1
  1072   541   539   ar
  1073   177   176    1
  1074  1289  1288   ar
  1075  1289  1291   ar
  1076  1449  1447    1
  1077   539   540    2
  1078   898   904   ar
  1079  1447  1448    1
  1080   513   514    1
  1081   513   515    1
  1082  1349  1350    1
  1083  1288  1295   ar
  1084   812   828    1
  1085  1280  1278    1
  1086   907   906   ar
  1087  1458  1459    2
  1088   847   828    2
  1089   191   212    1
  1090   191   175    1
  1091   216   217    1
  1092   889   890    1
  1093   871   873    1
  1094   871   869    1
  1095   893   894    1
  1096   903   904   ar
  1097   903   906   ar
  1098   831   833    1
  1099   831   829    1
  1100  1708  1710    1
  1101   915   920    1
  1102   915   914    1
  1103  1553  1554    1
  1104  1553  1551    1
  1105   250   249   ar
  1106   250   251   ar
  1107   196   194    1
  1108   196   198    1
  1109  1367  1369    1
  1110  1367  1365    1
  1111   873   874    1
  1112  1715  1714    1
  1113  1715  1716   ar
  1114   830   828    1
  1115   830   829    1
  1116  1718  1716   ar
  1117   510   515    1
  1118   833   834    1
  1119  1291  1292   ar
  1120   919   918    1
  1121   851   853    1
  1122   851   849    1
  1123   904   905    2
  1124  1370  1369    1
  1125  1295  1294   ar
  1126   894   911    1
  1127   220   221    1
  1128   220   222    1
  1129  1278  1297    1
  1130  1278  1264    1
  1131   249   248   ar
  1132   853   854    1
  1133   181   180   ar
  1134   181   182   ar
  1135   920   918    1
  1136   920   931    1
  1137   914   912    1
  1138   914   916    1
  1139   828   846    1
  1140  1545  1544    1
  1141   192   194    1
  1142   524   523   ar
  1143   524   525   ar
  1144   194   195    1
  1145   180   179   ar
  1146  1714  1712    1
  1147  1716  1717    2
  1148   515   525    1
  1149   252   251    1
  1150   912   913    1
  1151  1467  1466    1
  1152  1292  1294   ar
  1153  1292  1293    1
  1154   874   888    1
  1155   890   888    1
  1156   178   176    1
  1157   178   173    1
  1158   178   188    1
  1159   523   520   ar
  1160   251   246   ar
  1161  1369  1371    1
  1162   525   519   ar
  1163   176   174    1
  1164  1362  1381    2
  1165  1362  1380    1
  1166  1362  1364    1
  1167  1552  1551    1
  1168  1552  1550    1
  1169   199   198    1
  1170   232   231   ar
  1171   232   233   ar
  1172   869   870    1
  1173  1543  1544   ar
  1174  1543  1541   ar
  1175  1710  1712    1
  1176  1710  1711    1
  1177   918   916    1
  1178   849   850    1
  1179  1365  1363    1
  1180  1365  1366    1
  1181   850   848    1
  1182   217   222    1
  1183   173   172    1
  1184   198   200    1
  1185   931   930   ar
  1186   931   925   ar
  1187  1363  1364    1
  1188  1544  1546   ar
  1189   175   174    1
  1190   231   228   ar
  1191   870   868    1
  1192   834   848    1
  1193   248   247   ar
  1194   854   868    1
  1195   222   233    1
  1196   520   519   ar
  1197   520   521   ar
  1198  1524  1523    2
  1199   182   188   ar
  1200   182   183   ar
  1201   916   917    1
  1202   519   518   ar
  1203   913   911    1
  1204   930   929   ar
  1205   172   174    1
  1206   172   170    1
  1207   179   184   ar
  1208  1542  1541    2
  1209   924   925   ar
  1210   924   922   ar
  1211   911   932    2
  1212   911   933    1
  1213   888   909    2
  1214   888   910    1
  1215   233   227   ar
  1216  1264  1263    1
  1217  1712  1713    1
  1218   917   934    1
  1219  1506  1485    2
  1220   188   187   ar
  1221   925   926   ar
  1222  1541  1540   ar
  1223   867   848    2
  1224   195   200    1
  1225  1466  1468    1
  1226  1572  1550    2
  1227  1711  1725    1
  1228   246   247   ar
  1229  1481  1482   ar
  1230  1481  1479   ar
  1231  1740  1739    2
  1232   848   866    1
  1233  1744  1725    2
  1234   935   937    1
  1235   935   936    1
  1236   518   517   ar
  1237  1371  1366    1
  1238  1371  1372    1
  1239  1550  1571    1
  1240  1550  1536    1
  1241   521   522    1
  1242   521   516   ar
  1243   938   937    1
  1244   938   943    1
  1245  1501  1500    1
  1246   937   939    1
  1247   228   227   ar
  1248   228   229   ar
  1249   868   887    2
  1250   868   886    1
  1251  1546  1547   ar
  1252   923   922    1
  1253   922   921   ar
  1254   200   210    1
  1255  1480  1479    1
  1256   929   926   ar
  1257  1482  1475   ar
  1258   926   927   ar
  1259   227   226   ar
  1260  1523  1517   ar
  1261  1523  1522   ar
  1262   952   934    2
  1263   517   516   ar
  1264   183   184   ar
  1265   183   186   ar
  1266  1741  1739   ar
  1267  1741  1742   ar
  1268  1479  1478   ar
  1269  1470  1472    1
  1270  1470  1468    1
  1271  1470  1471    1
  1272   184   185    1
  1273  1263  1265    1
  1274  1263  1261    1
  1275  1739  1738   ar
  1276  1725  1743    1
  1277  1725  1727    1
  1278  1266  1265    1
  1279  1374  1373    2
  1280  1540  1547   ar
  1281  1540  1539    1
  1282   170   171    1
  1283  1472  1473    1
  1284  1472  1474    1
  1285   936   934    1
  1286  1265  1267    1
  1287   230   229    2
  1288  1517  1518   ar
  1289   209   210   ar
  1290   209   208   ar
  1291  1502  1499   ar
  1292  1502  1503   ar
  1293   229   223   ar
  1294   942   941    1
  1295   921   927   ar
  1296   187   186   ar
  1297   943   941    1
  1298   943   944    1
  1299   210   204   ar
  1300  1468  1469    1
  1301  1537  1535    1
  1302  1537  1538    1
  1303  1537  1539    1
  1304   171   169    1
  1305  1500  1499   ar
  1306  1500  1495   ar
  1307  1485  1471    1
  1308  1485  1505    1
  1309  1485  1487    1
  1310   934   953    1
  1311   927   928    2
  1312  1372  1373   ar
  1313  1372  1379   ar
  1314  1536  1535    1
  1315  1525  1522   ar
  1316  1525  1526   ar
  1317   226   224   ar
  1318  1522  1521   ar
  1319  1535  1533    1
  1320  1499  1498   ar
  1321  1475  1474    1
  1322  1475  1476   ar
  1323  1373  1375   ar
  1324   939   940    1
  1325   939   941    1
  1326  1529  1507    2
  1327   940   954    1
  1328  1742  1735   ar
  1329   208   205   ar
  1330  1503  1504   ar
  1331  1539  1534    1
  1332  1469  1474    1
  1333   951   944   ar
  1334   951   950   ar
  1335  1549  1530    2
  1336  1495  1496   ar
  1337  1478  1476   ar
  1338  1270  1269    2
  1339   223   224   ar
  1340  1738  1736   ar
  1341   204   203   ar
  1342   204   205   ar
  1343  1762  1761    2
  1344  1727  1726    1
  1345   944   945   ar
  1346  1487  1486    1
  1347  1518  1519    1
  1348  1518  1520   ar
  1349   224   225    1
  1350  1784  1783    1
  1351  1379  1378   ar
  1352  1261  1259    1
  1353  1261  1262    1
  1354  1269  1271   ar
  1355  1269  1268   ar
  1356   190   169    2
  1357  1842  1841    1
  1358  1476  1477    2
  1359   203   202   ar
  1360   205   206   ar
  1361  1271  1272   ar
  1362  1267  1268    1
  1363  1267  1262    1
  1364  1260  1259    1
  1365  1260  1258    1
  1366  1526  1527   ar
  1367  1268  1275   ar
  1368  1532  1530    1
  1369  1532  1531    1
  1370  1521  1520   ar
  1371  1521  1527   ar
  1372   169   189    1
  1373   169   155    1
  1374  1801  1800   ar
  1375  1801  1802   ar
  1376   950   948   ar
  1377  1498  1504   ar
  1378  1498  1497   ar
  1379  1800  1805   ar
  1380   157   156    1
  1381  1375  1376   ar
  1382  1272  1273    1
  1383  1272  1274   ar
  1384  1504  1494    1
  1385   974   954    2
  1386  1735  1736   ar
  1387  1735  1734    1
  1388  1275  1274   ar
  1389  1496  1497   ar
  1390  1530  1548    1
  1391  1530  1513    1
  1392  1823  1824   ar
  1393  1823  1822   ar
  1394  1534  1533    1
  1395  1736  1737    2
  1396  1533  1531    1
  1397  1726  1728    1
  1398   954   975    1
  1399   954   956    1
  1400   945   946    2
  1401   945   947   ar
  1402  1507  1528    1
  1403  1507  1509    1
  1404  1507  1491    1
  1405  1820  1819    1
  1406  1492  1490    1
  1407  1492  1493    1
  1408  1492  1494    1
  1409  1276  1258    2
  1410  1778  1783   ar
  1411  1778  1779   ar
  1412  1824  1825   ar
  1413  1761  1755   ar
  1414  1761  1760   ar
  1415  1783  1782   ar
  1416   202   201   ar
  1417  1527  1516    1
  1418   206   201   ar
  1419   206   207    1
  1420  1378  1376   ar
  1421  1490  1491    1
  1422  1490  1488    1
  1423  1729  1734    1
  1424  1729  1728    1
  1425  1277  1258    1
  1426  1838  1843    1
  1427  1838  1837    1
  1428   155   154    1
  1429  1258  1241    1
  1430  1486  1488    1
  1431  1843  1841    1
  1432  1843  1854    1
  1433  1509  1508    1
  1434  1802  1803   ar
  1435  1376  1377    2
  1436  1858  1860    1
  1437  1858  1859    1
  1438  1837  1839    1
  1439  1837  1835    1
  1440  1841  1839    1
  1441  1860  1861    1
  1442  1860  1862    1
  1443   948   947   ar
  1444   948   949    1
  1445  1861  1866    1
  1446  1763  1760   ar
  1447  1763  1764   ar
  1448  1822  1827   ar
  1449  1805  1806    1
  1450  1805  1804   ar
  1451   156   154    1
  1452   156   158    1
  1453  1755  1756   ar
  1454  1494  1489    1
  1455   955   956    1
  1456   955   957    1
  1457  1734  1732    1
  1458  1760  1759   ar
  1459  1728  1730    1
  1460  1512  1514    1
  1461  1512  1513    1
  1462  1512  1510    1
  1463  1865  1864    1
  1464  1488  1489    1
  1465  1821  1819    1
  1466  1821  1831    1
  1467  1821  1816    1
  1468  1840  1839    1
  1469  1840  1857    1
  1470  1779  1780   ar
  1471  1819  1817    1
  1472  1847  1845   ar
  1473  1847  1848   ar
  1474  1514  1516    1
  1475  1514  1515    1
  1476  1846  1845    1
  1477  1825  1831   ar
  1478  1825  1826   ar
  1479  1835  1836    1
  1480  1782  1785   ar
  1481  1782  1781   ar
  1482   154   152    1
  1483  1516  1511    1
  1484   161   160    2
  1485  1866  1864    1
  1486  1866  1876    1
  1487  1803  1804   ar
  1488  1803  1809   ar
  1489   958   957    1
  1490   958   963    1
  1491  1854  1848   ar
  1492  1854  1853   ar
  1493  1730  1732    1
  1494  1730  1731    1
  1495  1863  1862    1
  1496  1863  1879    1
  1497  1877  1857    2
  1498  1831  1830   ar
  1499  1845  1844   ar
  1500  1804  1807   ar
  1501  1764  1765   ar
  1502  1785  1786   ar
  1503  1816  1815    1
  1504  1859  1857    1
  1505  1827  1826   ar
  1506  1827  1828    1
  1507  1862  1864    1
  1508   957   959    1
  1509  1508  1510    1
  1510  1848  1849   ar
  1511  1241  1240    1
  1512  1247  1246    1
  1513  1767  1745    2
  1514   158   159    1
  1515   158   153    1
  1516  1511  1510    1
  1517  1756  1757    1
  1518  1756  1758   ar
  1519  1245  1246   ar
  1520  1245  1251   ar
  1521  1732  1733    1
  1522  1252  1251    2
  1523  1826  1829   ar
  1524  1857  1878    1
  1525  1759  1765   ar
  1526  1759  1758   ar
  1527  1246  1248   ar
  1528   972   971   ar
  1529   972   973   ar
  1530   152   153    1
  1531   152   150    1
  1532  1780  1781   ar
  1533  1251  1250   ar
  1534  1781  1787   ar
  1535  1897  1879    2
  1536   160   159   ar
  1537   160   162   ar
  1538  1815  1817    1
  1539  1815  1813    1
  1540  1817  1818    1
  1541   971   968   ar
  1542  1853  1852   ar
  1543  1836  1834    1
  1544  1240  1242    1
  1545  1240  1238    1
  1546  1818  1834    1
  1547  1809  1799    1
  1548  1809  1808   ar
  1549  1876  1875   ar
  1550  1876  1870   ar
  1551   159   166   ar
  1552  1731  1745    1
  1553  1765  1754    1
  1554   963   973    1
  1555   963   961    1
  1556  1248  1249   ar
  1557  1830  1829   ar
  1558  1242  1243    1
  1559  1242  1244    1
  1560   973   967   ar
  1561  1844  1850   ar
  1562  1879  1898    1
  1563  1879  1881    1
  1564  1250  1249   ar
  1565  1250  1253   ar
  1566  1799  1797    1
  1567  1799  1794    1
  1568  1807  1808   ar
  1569  1849  1852   ar
  1570  1849  1850   ar
  1571  1798  1797    1
  1572  1786  1787   ar
  1573  1249  1255   ar
  1574   162   163   ar
  1575  1875  1874   ar
  1576  1745  1747    1
  1577  1745  1766    1
  1578  1880  1881    1
  1579  1880  1882    1
  1580   968   967   ar
  1581   968   969   ar
  1582  1797  1795    1
  1583   959   960    1
  1584   959   961    1
  1585  1869  1870   ar
  1586  1869  1868   ar
  1587  1253  1254   ar
  1588  1787  1777    1
  1589   150   151    1
  1590  1870  1871   ar
  1591   967   966   ar
  1592  1834  1855    2
  1593  1834  1856    1
  1594  1850  1851    2
  1595  1257  1235    2
  1596  1255  1254   ar
  1597  1255  1244    1
  1598   166   165   ar
  1599  1237  1235    1
  1600  1237  1236    1
  1601   970   969    1
  1602  1747  1746    1
  1603  1256  1235    1
  1604  1813  1814    1
  1605   969   964   ar
  1606   960   976    1
  1607   961   962    1
  1608  1883  1882    1
  1609  1883  1888    1
  1610  1794  1793    1
  1611  1882  1884    1
  1612  1244  1239    1
  1613   163   165   ar
  1614   163   164    1
  1615  1754  1749    1
  1616  1754  1752    1
  1617  1238  1236    1
  1618  1238  1239    1
  1619  1749  1748    1
  1620  1874  1871   ar
  1621  1235  1221    1
  1622   151   149    1
  1623   966   965   ar
  1624  1868  1867   ar
  1625  1871  1872   ar
  1626   964   965   ar
  1627  1814  1812    1
  1628   997   976    2
  1629  1777  1775    1
  1630  1777  1772    1
  1631  1795  1793    1
  1632  1795  1796    1
  1633  1746  1748    1
  1634   976   996    1
  1635   976   978    1
  1636   167   149    2
  1637  1752  1750    1
  1638  1752  1753    1
  1639  1748  1750    1
  1640  1793  1791    1
  1641  1867  1872   ar
  1642  1888  1889    1
  1643  1888  1886    1
  1644  1872  1873    1
  1645   149   135    1
  1646   149   168    1
  1647  1750  1751    1
  1648  1775  1776    1
  1649  1775  1773    1
  1650   137   136    1
  1651   992   991    1
  1652  1796  1812    1
  1653  1772  1771    1
  1654  1884  1885    1
  1655  1884  1886    1
  1656  1896  1889   ar
  1657  1896  1895   ar
  1658  1221  1220    1
  1659  1887  1886    1
  1660  1889  1890   ar
  1661  1789  1768    2
  1662  1885  1899    1
  1663   141   140    2
  1664  1230  1229    2
  1665  1812  1833    2
  1666  1812  1832    1
  1667   135   134    1
  1668   136   134    1
  1669   136   138    1
  1670  1895  1893   ar
  1671  1792  1791    1
  1672  1792  1790    1
  1673   991   990   ar
  1674   991   986   ar
  1675   993   990   ar
  1676   993   994   ar
  1677   978   977    1
  1678  1773  1771    1
  1679  1773  1774    1
  1680  1220  1222    1
  1681  1220  1218    1
  1682  1229  1231   ar
  1683  1229  1228   ar
  1684    22     1    1
  1685  1231  1232   ar
  1686   990   989   ar
  1687   986   987   ar
  1688  1216  1218    1
  1689  1216  1217    1
  1690  1751  1768    1
  1691  1771  1769    1
  1692     1    23    1
  1693     1     3    1
  1694   977   979    1
  1695   140   142   ar
  1696   140   139   ar
  1697   134   132    1
  1698  1890  1891    2
  1699  1890  1892   ar
  1700   994   995   ar
  1701     2     3    1
  1702     2     4    1
  1703  1228  1226   ar
  1704  1811  1790    2
  1705   142   143   ar
  1706  1768  1770    1
  1707  1768  1788    1
  1708  1232  1225   ar
  1709  1893  1892   ar
  1710  1893  1894    2
  1711  1769  1770    1
  1712  1234  1215    2
  1713  1899  1920    2
  1714  1899  1921    1
  1715  1899  1901    1
  1716   138   139    1
  1717   138   133    1
  1718  1222  1223    1
  1719  1222  1224    1
  1720   989   995   ar
  1721   989   988   ar
  1722  1218  1219    1
  1723   987   988   ar
  1724   980   979    1
  1725   980   985    1
  1726  1790  1774    1
  1727  1790  1810    1
  1728   139   146   ar
  1729  1226  1225   ar
  1730  1226  1227    2
  1731   995   985    1
  1732  1225  1224    1
  1733  1217  1215    1
  1734    45    24    2
  1735   979   981    1
  1736  1214  1192    2
  1737     4     5    1
  1738     4     6    1
  1739   143   144    2
  1740   143   145   ar
  1741  1233  1215    1
  1742  1215  1198    1
  1743    46    24    1
  1744  1190  1169    2
  1745  1191  1169    1
  1746   132   133    1
  1747   132   130    1
  1748  1224  1219    1
  1749   985   983    1
  1750  1167  1149    2
  1751     7    24    1
  1752     7     6    1
  1753   146   145   ar
  1754  1169  1171    1
  1755  1169  1155    1
  1756  1213  1192    1
  1757  1901  1900    1
  1758    24    26    1
  1759  1900  1902    1
  1760  1013  1012    1
  1761     5    10    1
  1762  1209  1208    2
  1763  1192  1194    1
  1764  1192  1175    1
  1765     6     8    1
  1766  1016   998    2
  1767   981   983    1
  1768   981   982    1
  1769  1014  1012   ar
  1770  1014  1015   ar
  1771  1903  1902    1
  1772  1903  1908    1
  1773  1012  1011   ar
  1774   130   131    1
  1775   123   122    1
  1776   117   122   ar
  1777   117   118   ar
  1778   131   129    1
  1779  1208  1207   ar
  1780  1208  1202   ar
  1781  1210  1207   ar
  1782  1210  1211   ar
  1783  1902  1904    1
  1784   983   984    1
  1785  1194  1193    1
  1786  1171  1170    1
  1787  1198  1197    1
  1788  1155  1154    1
  1789  1149  1168    1
  1790  1149  1151    1
  1791  1149  1133    1
  1792  1015  1008   ar
  1793  1918  1917   ar
  1794  1918  1919   ar
  1795   122   121   ar
  1796   118   119   ar
  1797     9     8    1
  1798  1011  1009   ar
  1799  1207  1206   ar
  1800  1150  1151    1
  1801  1150  1152    1
  1802  1917  1914   ar
  1803    26    25    1
  1804  1202  1203   ar
  1805  1197  1199    1
  1806  1197  1195    1
  1807     8    10    1
  1808  1211  1212   ar
  1809    10    21    1
  1810  1175  1174    1
  1811   982   998    1
  1812  1008  1009   ar
  1813  1008  1007    1
  1814  1170  1172    1
  1815   998  1000    1
  1816   998  1017    1
  1817  1009  1010    2
  1818    25    27    1
  1819  1908  1919    1
  1820  1908  1906    1
  1821  1154  1152    1
  1822  1154  1156    1
  1823  1919  1913   ar
  1824    20    21   ar
  1825    20    19   ar
  1826   119   120   ar
  1827  1206  1212   ar
  1828  1206  1205   ar
  1829   121   120   ar
  1830   121   124   ar
  1831  1193  1195    1
  1832  1174  1172    1
  1833  1174  1176    1
  1834  1199  1201    1
  1835  1199  1200    1
  1836   148   129    2
  1837   129   147    1
  1838   129   113    1
  1839  1212  1201    1
  1840  1203  1205   ar
  1841  1203  1204    1
  1842  1133  1132    1
  1843  1152  1153    1
  1844  1002  1007    1
  1845  1002  1001    1
  1846  1007  1005    1
  1847    21    15   ar
  1848  1914  1913   ar
  1849  1914  1915   ar
  1850  1904  1906    1
  1851  1904  1905    1
  1852  1187  1188   ar
  1853  1187  1184   ar
  1854   120   126   ar
  1855  1195  1196    1
  1856  1000   999    1
  1857  1188  1189   ar
  1858   124   125   ar
  1859  1172  1173    1
  1860  1913  1912   ar
  1861  1186  1185    2
  1862    66    47    2
  1863    19    16   ar
  1864  1916  1915    2
  1865  1201  1196    1
  1866  1906  1907    1
  1867  1915  1909   ar
  1868  1905  1922    1
  1869   114   115    1
  1870   114   112    1
  1871   114   116    1
  1872  1184  1185   ar
  1873  1184  1183   ar
  1874  1185  1179   ar
  1875  1156  1157    1
  1876  1156  1158    1
  1877  1165  1166   ar
  1878  1165  1163   ar
  1879  1176  1178    1
  1880  1176  1177    1
  1881   126   125   ar
  1882   126   116    1
  1883   102   101    2
  1884  1943  1922    2
  1885  1033  1032    1
  1886    27    29    1
  1887    27    28    1
  1888  1166  1159   ar
  1889   113   112    1
  1890  1189  1183   ar
  1891  1189  1178    1
  1892  1153  1158    1
  1893  1173  1178    1
  1894  1132  1130    1
  1895  1132  1134    1
  1896  1912  1910   ar
  1897    30    47    1
  1898    30    29    1
  1899   112   110    1
  1900  1001   999    1
  1901  1001  1003    1
  1902    15    16   ar
  1903    15    14   ar
  1904    65    47    1
  1905  1183  1182   ar
  1906  1147  1127    2
  1907    47    49    1
  1908  1005  1006    1
  1909  1005  1003    1
  1910  1164  1163    2
  1911  1163  1162   ar
  1912    29    31    1
  1913  1128  1130    1
  1914  1128  1129    1
  1915   116   111    1
  1916  1922  1942    1
  1917  1922  1924    1
  1918    16    17   ar
  1919  1909  1910   ar
  1920  1159  1158    1
  1921  1159  1160   ar
  1922  1179  1180   ar
  1923    28    33    1
  1924  1032  1031   ar
  1925  1032  1034   ar
  1926    43    42   ar
  1927    43    44   ar
  1928  1130  1131    1
  1929  1910  1911    1
  1930   101   100   ar
  1931   101   103   ar
  1932  1135  1134    1
  1933    42    39   ar
  1934  1031  1029   ar
  1935  1162  1160   ar
  1936   100    98   ar
  1937  1127  1129    1
  1938  1127  1148    1
  1939  1127  1111    1
  1940    14    12   ar
  1941  1182  1180   ar
  1942  1938  1937    1
  1943  1134  1136    1
  1944  1034  1035   ar
  1945  1160  1161    2
  1946  1003  1004    1
  1947  1180  1181    1
  1948  1939  1940   ar
  1949  1939  1936   ar
  1950    82    81    2
  1951   110   111    1
  1952   110   108    1
  1953   103   104   ar
  1954  1029  1030    2
  1955  1029  1028   ar
  1956    44    33    1
  1957    44    38   ar
  1958  1054  1053    1
  1959  1940  1941   ar
  1960    33    31    1
  1961    49    48    1
  1962    17    18    2
  1963    17    11   ar
  1964  1035  1028   ar
  1965    31    32    1
  1966  1924  1923    1
  1967   109   108    1
  1968   109   107    1
  1969   128   107    2
  1970  1937  1936   ar
  1971  1937  1932   ar
  1972  1936  1935   ar
  1973    98    99    2
  1974    98    97   ar
  1975    86    67    2
  1976  1131  1136    1
  1977  1028  1027    1
  1978    62    61    1
  1979    39    38   ar
  1980    39    40   ar
  1981    12    11   ar
  1982    12    13    1
  1983    63    61   ar
  1984    63    64   ar
  1985  1004  1018    1
  1986  1111  1110    1
  1987  1136  1146    1
  1988  1048  1053   ar
  1989  1048  1049   ar
  1990  2019  2018    1
  1991  1053  1052   ar
  1992  1923  1925    1
  1993    81    83   ar
  1994    81    80   ar
  1995   104    97   ar
  1996   107   127    1
  1997   107    93    1
  1998  1932  1933   ar
  1999  1941  1935   ar
  2000  1941  1931    1
  2001    38    37   ar
  2002  1926  1931    1
  2003  1926  1925    1
  2004    41    40    2
  2005  1145  1146   ar
  2006  1145  1144   ar
  2007    97    96    1
  2008  1935  1934   ar
  2009    48    50    1
  2010    61    60   ar
  2011    83    84   ar
  2012  1037  1018    2
  2013  1146  1140   ar
  2014  1022  1027    1
  2015  1022  1021    1
  2016  1072  1071    1
  2017    64    57   ar
  2018  1027  1025    1
  2019    40    34   ar
  2020  1961  1960    2
  2021  1049  1050   ar
  2022  1070  1071   ar
  2023  1070  1076   ar
  2024  1077  1076    2
  2025  1144  1141   ar
  2026   106    87    2
  2027  1052  1055   ar
  2028  1052  1051   ar
  2029    67    85    1
  2030    67    53    1
  2031    67    69    1
  2032  1018  1020    1
  2033  1018  1036    1
  2034  1931  1929    1
  2035    94    92    1
  2036    94    96    1
  2037    94    95    1
  2038  1925  1927    1
  2039  1933  1934   ar
  2040    80    78   ar
  2041  1020  1019    1
  2042  1110  1112    1
  2043  1110  1108    1
  2044  1071  1073   ar
  2045  1140  1141   ar
  2046  1140  1139   ar
  2047  1076  1075   ar
  2048  1055  1056   ar
  2049  2018  2017   ar
  2050  2018  2020   ar
  2051    92    93    1
  2052    92    90    1
  2053  1141  1142   ar
  2054    96    91    1
  2055    37    35   ar
  2056    84    77   ar
  2057    52    50    1
  2058    52    53    1
  2059    52    54    1
  2060  1050  1051   ar
  2061  1139  1138   ar
  2062  1019  1021    1
  2063    60    58   ar
  2064    50    51    1
  2065  1051  1057   ar
  2066  2017  2023   ar
  2067  1960  1954   ar
  2068  1960  1959   ar
  2069  1021  1023    1
  2070  1113  1112    1
  2071    57    58   ar
  2072    57    56    1
  2073  1982  1981    1
  2074    69    68    1
  2075    34    35   ar
  2076  1106  1108    1
  2077  1106  1107    1
  2078    89    87    1
  2079    89    88    1
  2080  1112  1114    1
  2081  1025  1023    1
  2082  1025  1026    1
  2083  1927  1929    1
  2084  1927  1928    1
  2085    51    56    1
  2086  1108  1109    1
  2087  2020  2021   ar
  2088    87   105    1
  2089    87    73    1
  2090  1056  1057   ar
  2091  1142  1143    1
  2092  1142  1137   ar
  2093    78    77   ar
  2094    78    79    2
  2095  1073  1074   ar
  2096  1962  1959   ar
  2097  1962  1963   ar
  2098    35    36    1
  2099  1138  1137   ar
  2100  1954  1955   ar
  2101  1929  1930    1
  2102    58    59    2
  2103  1075  1074   ar
  2104  1075  1078   ar
  2105    77    76    1
  2106    91    90    1
  2107  1057  1047    1
  2108  1959  1958   ar
  2109  1023  1024    1
  2110    56    54    1
  2111    90    88    1
  2112  1966  1944    2
  2113    54    55    1
  2114  1074  1080   ar
  2115  1981  1980   ar
  2116  1981  1983   ar
  2117  2002  2001    1
  2118  2023  2024    2
  2119  2023  2022   ar
  2120    72    73    1
  2121    72    74    1
  2122    72    70    1
  2123  1980  1978   ar
  2124  1107  1105    1
  2125  1928  1944    1
  2126    68    70    1
  2127  1078  1079   ar
  2128  1963  1964   ar
  2129  2000  2001   ar
  2130  2000  1998   ar
  2131  2021  2022   ar
  2132  2021  2027   ar
  2133  1114  1109    1
  2134  1114  1124    1
  2135  1125  1105    2
  2136  1047  1042    1
  2137  1047  1045    1
  2138    74    76    1
  2139    74    75    1
  2140  1955  1956    1
  2141  1955  1957   ar
  2142    76    71    1
  2143  1999  1998    2
  2144  1042  1041    1
  2145  1117  1116   ar
  2146  1117  1118   ar
  2147  1958  1964   ar
  2148  1958  1957   ar
  2149  1944  1946    1
  2150  1944  1965    1
  2151    70    71    1
  2152  2001  2003   ar
  2153  1080  1079   ar
  2154  1080  1069    1
  2155  1116  1115   ar
  2156  2022  2025   ar
  2157  1126  1105    1
  2158  1024  1038    1
  2159  1105  1089    1
  2160  1124  1118   ar
  2161  1124  1123   ar
  2162  1983  1984   ar
  2163  1118  1119   ar
  2164  1998  1997   ar
  2165  1964  1953    1
  2166  1978  1979    2
  2167  1978  1977   ar
  2168  1059  1038    2
  2169  2015  2014    1
  2170  2016  2027    1
  2171  2016  2014    1
  2172  2016  2011    1
  2173  2027  2026   ar
  2174  1115  1120   ar
  2175  1123  1122   ar
  2176  1119  1120   ar
  2177  1119  1122   ar
  2178  1040  1038    1
  2179  1040  1039    1
  2180  1946  1945    1
  2181  1069  1064    1
  2182  1069  1067    1
  2183  1045  1046    1
  2184  1045  1043    1
  2185  1038  1058    1
  2186  1120  1121    1
  2187  2014  2012    1
  2188  1041  1039    1
  2189  1041  1043    1
  2190  1984  1977   ar
  2191  2003  2004   ar
  2192  1977  1976    1
  2193  2011  2010    1
  2194  2025  2026   ar
  2195  1064  1063    1
  2196  1948  1953    1
  2197  1948  1947    1
  2198  1089  1088    1
  2199  1953  1951    1
  2200  1997  2004   ar
  2201  1997  1996    1
  2202  1043  1044    1
  2203  1067  1068    1
  2204  1067  1065    1
  2205  1945  1947    1
  2206  1996  1994    1
  2207  1996  1991    1
  2208  1091  1090    1
  2209  1947  1949    1
  2210  1088  1090    1
  2211  1088  1086    1
  2212  2012  2010    1
  2213  2012  2013    1
  2214  2010  2008    1
  2215  1090  1092    1
  2216  1976  1971    1
  2217  1976  1974    1
  2218  1951  1949    1
  2219  1951  1952    1
  2220  1949  1950    1
  2221  1063  1065    1
  2222  1063  1061    1
  2223  1094  1095   ar
  2224  1094  1093   ar
  2225  1065  1066    1
  2226  1994  1995    1
  2227  1994  1992    1
  2228  1044  1060    1
  2229  1986  1967    2
  2230  1095  1096   ar
  2231  1093  1098   ar
  2232  1062  1061    1
  2233  1062  1060    1
  2234  1971  1970    1
  2235  1082  1060    2
  2236  1974  1975    1
  2237  1974  1972    1
  2238  1991  1990    1
  2239  2008  2009    1
  2240  1096  1097   ar
  2241  1096  1102   ar
  2242  1098  1099    1
  2243  1098  1097   ar
  2244  1060  1081    1
  2245  1086  1084    1
  2246  1086  1087    1
  2247  2009  2007    1
  2248  1085  1084    1
  2249  1085  1083    1
  2250  1950  1967    1
  2251  1969  1967    1
  2252  1969  1968    1
  2253  1092  1102    1
  2254  1092  1087    1
  2255  1097  1100   ar
  2256  1102  1101   ar
  2257  1967  1985    1
  2258  1066  1083    1
  2259  1992  1990    1
  2260  1992  1993    1
  2261  1972  1970    1
  2262  1972  1973    1
  2263  1970  1968    1
  2264  1100  1101   ar
  2265  1990  1988    1
  2266  1083  1104    2
  2267  1083  1103    1
  2268  2006  1987    2
  2269  1989  1988    1
  2270  1989  1987    1
  2271  2029  2007    2
  2272  1993  2007    1
  2273  2007  2028    1
  2274  1973  1987    1
  2275  1987  2005    1
