ligand
  PyMOL2.2          3D                             0

 40 42  0  0  0  0  0  0  0  0999 V2000
    3.6940   -7.1950   19.3090 C   0  0  0  0  0  0  0  0  0  0  0  0
    2.4970   -7.9080   19.6580 O   0  0  0  0  0  0  0  0  0  0  0  0
    4.9270   -7.7570   20.1110 C   0  0  0  0  0  0  0  0  0  0  0  0
    4.7860   -7.4900   21.6380 C   0  0  0  0  0  0  0  0  0  0  0  0
    4.6900   -5.9450   21.8430 C   0  0  0  0  0  0  0  0  0  0  0  0
    4.5840   -5.6580   23.2540 O   0  0  0  0  0  0  0  0  0  0  0  0
    3.4120   -5.4110   21.0600 C   0  0  0  0  0  0  0  0  0  0  0  0
    3.5460   -5.7320   19.5940 O   0  0  0  0  0  0  0  0  0  0  0  0
    3.2410   -3.9030   21.1820 C   0  0  0  0  0  0  0  0  0  0  0  0
    1.8750   -3.5430   21.6770 N   0  0  0  0  0  0  0  0  0  0  0  0
   -1.2720   -9.1940   17.7950 C   0  0  0  0  0  0  0  0  0  0  0  0
   -2.4220   -9.1990   16.9210 N   0  0  0  0  0  0  0  0  0  0  0  0
   -1.2780   -7.8760   18.6700 C   0  0  0  0  0  0  0  0  0  0  0  0
   -0.0110   -7.8540   19.6370 C   0  0  0  0  0  0  0  0  0  0  0  0
   -0.0270   -6.6230   20.4700 N   0  0  0  0  0  0  0  0  0  0  0  0
    1.3220   -7.9400   18.7580 C   0  0  0  0  0  0  0  0  0  0  0  0
    1.2800   -9.2750   17.8990 C   0  0  0  0  0  0  0  0  0  0  0  0
    2.4700   -9.3630   17.1120 O   0  0  0  0  0  0  0  0  0  0  0  0
    0.0180   -9.2850   16.9490 C   0  0  0  0  0  0  0  0  0  0  0  0
   -0.0170  -10.5180   16.1880 O   0  0  0  0  0  0  0  0  0  0  0  0
   -0.2840  -10.6150   14.8300 C   0  0  0  0  0  0  0  0  0  0  0  0
   -0.5540  -12.1280   14.5090 C   0  0  0  0  0  0  0  0  0  0  0  0
   -1.6090  -12.5920   15.2880 O   0  0  0  0  0  0  0  0  0  0  0  0
    0.7460  -13.0160   14.7160 C   0  0  0  0  0  0  0  0  0  0  0  0
    0.4700  -14.4500   14.3930 N   0  0  0  0  0  0  0  0  0  0  0  0
    1.9090  -12.4380   13.7970 C   0  0  0  0  0  0  0  0  0  0  0  0
    3.1040  -13.2160   13.9390 O   0  0  0  0  0  0  0  0  0  0  0  0
    2.1480  -10.9310   14.1980 C   0  0  0  0  0  0  0  0  0  0  0  0
    0.8700  -10.1190   14.0370 O   0  0  0  0  0  0  0  0  0  0  0  0
    3.2300  -10.3060   13.3500 C   0  0  0  0  0  0  0  0  0  0  0  0
    3.2990   -8.8760   13.5020 O   0  0  0  0  0  0  0  0  0  0  0  0
    5.0330   -9.1860   19.8450 O   0  0  0  0  0  0  0  0  0  0  0  0
    5.8910   -7.9880   22.2850 O   0  0  0  0  0  0  0  0  0  0  0  0
   -3.5530  -10.0330   17.2560 C   0  0  0  0  0  0  0  0  0  0  0  0
   -3.3920  -11.0390   18.0090 O   0  0  0  0  0  0  0  0  0  0  0  0
   -4.9430   -9.6520   16.6600 C   0  0  0  0  0  0  0  0  0  0  0  0
   -7.2460  -12.4980   15.3320 N   0  0  0  0  0  0  0  0  0  0  0  0
   -5.4810  -10.7830   15.7300 C   0  0  0  0  0  0  0  0  0  0  0  0
   -6.7800  -11.4260   16.2440 C   0  0  0  0  0  0  0  0  0  0  0  0
   -4.8950   -8.6100   15.9320 O   0  0  0  0  0  0  0  0  0  0  0  0
  1  2  1  0  0  0  0
  1  3  1  0  0  0  0
  1  8  1  0  0  0  0
  2 16  1  0  0  0  0
  3  4  1  0  0  0  0
  3 32  1  0  0  0  0
  4  5  1  0  0  0  0
  4 33  1  0  0  0  0
  5  6  1  0  0  0  0
  5  7  1  0  0  0  0
  7  8  1  0  0  0  0
  7  9  1  0  0  0  0
  9 10  1  0  0  0  0
 11 12  1  0  0  0  0
 11 13  1  0  0  0  0
 11 19  1  0  0  0  0
 12 34  1  0  0  0  0
 13 14  1  0  0  0  0
 14 15  1  0  0  0  0
 14 16  1  0  0  0  0
 16 17  1  0  0  0  0
 17 18  1  0  0  0  0
 17 19  1  0  0  0  0
 19 20  1  0  0  0  0
 20 21  1  0  0  0  0
 21 22  1  0  0  0  0
 21 29  1  0  0  0  0
 22 23  1  0  0  0  0
 22 24  1  0  0  0  0
 24 25  1  0  0  0  0
 24 26  1  0  0  0  0
 26 27  1  0  0  0  0
 26 28  1  0  0  0  0
 28 29  1  0  0  0  0
 28 30  1  0  0  0  0
 30 31  1  0  0  0  0
 34 35  2  0  0  0  0
 34 36  1  0  0  0  0
 36 38  1  0  0  0  0
 36 40  1  0  0  0  0
 37 39  1  0  0  0  0
 38 39  1  0  0  0  0
M  END
$$$$
